<?xml version="1.0" encoding="UTF-8"?>

<!-- generated on 2023-01-17 21:56:52.758147 by randomTrips.py v1_14_1+1884-f40bea2336a
<configuration>
    <fringe-factor value="10.0"/>
    <net-file value="test_8x8_400.net.xml"/>
    <route-file value="test_8x8_400.rou.xml"/>
</configuration>
-->

<!-- generated on 2023-01-17 21:56:52 by Eclipse SUMO duarouter Version 1.14.1
<configuration xmlns:xsi="http://www.w3.org/2001/XMLSchema-instance" xsi:noNamespaceSchemaLocation="http://sumo.dlr.de/xsd/duarouterConfiguration.xsd">

    <input>
        <net-file value="test_8x8_400.net.xml"/>
        <route-files value="trips.trips.xml"/>
    </input>

    <output>
        <output-file value="test_8x8_400.rou.xml"/>
        <alternatives-output value="NUL"/>
    </output>

    <time>
        <begin value="0"/>
        <end value="3600"/>
    </time>

    <report>
        <no-warnings value="true"/>
        <ignore-errors value="true"/>
        <no-step-log value="true"/>
    </report>

</configuration>
-->

<routes xmlns:xsi="http://www.w3.org/2001/XMLSchema-instance" xsi:noNamespaceSchemaLocation="http://sumo.dlr.de/xsd/routes_file.xsd">
    <vehicle id="1" depart="1.00">
        <route edges="A1A0 A0B0"/>
    </vehicle>
    <vehicle id="2" depart="2.00">
        <route edges="B0B1"/>
    </vehicle>
    <vehicle id="3" depart="3.00">
        <route edges="B1B0 B0A0 A0A1"/>
    </vehicle>
    <vehicle id="4" depart="4.00">
        <route edges="A1B1 B1B0 B0A0 A0A1"/>
    </vehicle>
    <vehicle id="10" depart="10.00">
        <route edges="B1A1 A1A0 A0B0 B0B1"/>
    </vehicle>
    <vehicle id="11" depart="11.00">
        <route edges="A1A0 A0B0"/>
    </vehicle>
    <vehicle id="13" depart="13.00">
        <route edges="A0A1"/>
    </vehicle>
    <vehicle id="15" depart="15.00">
        <route edges="B1A1 A1A0 A0B0 B0B1"/>
    </vehicle>
    <vehicle id="16" depart="16.00">
        <route edges="B0A0 A0A1 A1B1 B1B0"/>
    </vehicle>
    <vehicle id="17" depart="17.00">
        <route edges="A1B1 B1B0 B0A0"/>
    </vehicle>
    <vehicle id="21" depart="21.00">
        <route edges="A0B0 B0B1 B1A1 A1A0"/>
    </vehicle>
    <vehicle id="24" depart="24.00">
        <route edges="B0B1 B1A1 A1A0"/>
    </vehicle>
    <vehicle id="25" depart="25.00">
        <route edges="A1A0 A0B0"/>
    </vehicle>
    <vehicle id="28" depart="28.00">
        <route edges="A0B0 B0B1"/>
    </vehicle>
    <vehicle id="32" depart="32.00">
        <route edges="B1A1"/>
    </vehicle>
    <vehicle id="34" depart="34.00">
        <route edges="A1A0"/>
    </vehicle>
    <vehicle id="38" depart="38.00">
        <route edges="B1B0 B0A0 A0A1 A1B1"/>
    </vehicle>
    <vehicle id="39" depart="39.00">
        <route edges="A1A0 A0B0"/>
    </vehicle>
    <vehicle id="41" depart="41.00">
        <route edges="B0A0 A0A1 A1B1 B1B0"/>
    </vehicle>
    <vehicle id="43" depart="43.00">
        <route edges="B1B0 B0A0"/>
    </vehicle>
    <vehicle id="44" depart="44.00">
        <route edges="A0A1"/>
    </vehicle>
    <vehicle id="47" depart="47.00">
        <route edges="A0A1 A1B1"/>
    </vehicle>
    <vehicle id="48" depart="48.00">
        <route edges="B1B0 B0A0"/>
    </vehicle>
    <vehicle id="52" depart="52.00">
        <route edges="A1A0 A0B0 B0B1"/>
    </vehicle>
    <vehicle id="53" depart="53.00">
        <route edges="A0A1 A1B1"/>
    </vehicle>
    <vehicle id="54" depart="54.00">
        <route edges="A1B1 B1B0"/>
    </vehicle>
    <vehicle id="58" depart="58.00">
        <route edges="A1A0 A0B0 B0B1"/>
    </vehicle>
    <vehicle id="63" depart="63.00">
        <route edges="A0A1 A1B1 B1B0"/>
    </vehicle>
    <vehicle id="66" depart="66.00">
        <route edges="B1B0"/>
    </vehicle>
    <vehicle id="67" depart="67.00">
        <route edges="A0A1 A1B1"/>
    </vehicle>
    <vehicle id="69" depart="69.00">
        <route edges="B1A1 A1A0 A0B0"/>
    </vehicle>
    <vehicle id="70" depart="70.00">
        <route edges="A1B1 B1B0 B0A0"/>
    </vehicle>
    <vehicle id="71" depart="71.00">
        <route edges="A1A0 A0B0 B0B1 B1A1"/>
    </vehicle>
    <vehicle id="74" depart="74.00">
        <route edges="A0B0 B0B1 B1A1 A1A0"/>
    </vehicle>
    <vehicle id="76" depart="76.00">
        <route edges="A1B1 B1B0 B0A0"/>
    </vehicle>
    <vehicle id="79" depart="79.00">
        <route edges="A0B0"/>
    </vehicle>
    <vehicle id="83" depart="83.00">
        <route edges="A0B0 B0B1"/>
    </vehicle>
    <vehicle id="84" depart="84.00">
        <route edges="A0B0"/>
    </vehicle>
    <vehicle id="85" depart="85.00">
        <route edges="B1B0 B0A0"/>
    </vehicle>
    <vehicle id="87" depart="87.00">
        <route edges="B1A1 A1A0 A0B0"/>
    </vehicle>
    <vehicle id="88" depart="88.00">
        <route edges="A0A1 A1B1"/>
    </vehicle>
    <vehicle id="89" depart="89.00">
        <route edges="A1B1"/>
    </vehicle>
    <vehicle id="90" depart="90.00">
        <route edges="B0B1"/>
    </vehicle>
    <vehicle id="91" depart="91.00">
        <route edges="B1B0 B0A0 A0A1"/>
    </vehicle>
    <vehicle id="93" depart="93.00">
        <route edges="B1A1 A1A0 A0B0"/>
    </vehicle>
    <vehicle id="98" depart="98.00">
        <route edges="B0A0 A0A1"/>
    </vehicle>
    <vehicle id="100" depart="100.00">
        <route edges="B1B0"/>
    </vehicle>
    <vehicle id="101" depart="101.00">
        <route edges="B1A1 A1A0 A0B0"/>
    </vehicle>
    <vehicle id="103" depart="103.00">
        <route edges="A1B1 B1B0 B0A0 A0A1"/>
    </vehicle>
    <vehicle id="104" depart="104.00">
        <route edges="A1B1 B1B0"/>
    </vehicle>
    <vehicle id="105" depart="105.00">
        <route edges="A1A0 A0B0 B0B1 B1A1"/>
    </vehicle>
    <vehicle id="106" depart="106.00">
        <route edges="A1B1"/>
    </vehicle>
    <vehicle id="107" depart="107.00">
        <route edges="B1B0"/>
    </vehicle>
    <vehicle id="109" depart="109.00">
        <route edges="A0B0 B0B1 B1A1 A1A0"/>
    </vehicle>
    <vehicle id="110" depart="110.00">
        <route edges="B1B0 B0A0"/>
    </vehicle>
    <vehicle id="112" depart="112.00">
        <route edges="A0A1 A1B1 B1B0 B0A0"/>
    </vehicle>
    <vehicle id="119" depart="119.00">
        <route edges="B0A0"/>
    </vehicle>
    <vehicle id="120" depart="120.00">
        <route edges="A1B1 B1B0 B0A0"/>
    </vehicle>
    <vehicle id="121" depart="121.00">
        <route edges="B0A0 A0A1 A1B1 B1B0"/>
    </vehicle>
    <vehicle id="122" depart="122.00">
        <route edges="A0B0 B0B1"/>
    </vehicle>
    <vehicle id="124" depart="124.00">
        <route edges="B0B1 B1A1 A1A0"/>
    </vehicle>
    <vehicle id="125" depart="125.00">
        <route edges="A1A0 A0B0 B0B1 B1A1"/>
    </vehicle>
    <vehicle id="126" depart="126.00">
        <route edges="A0A1 A1B1"/>
    </vehicle>
    <vehicle id="127" depart="127.00">
        <route edges="B1B0"/>
    </vehicle>
    <vehicle id="130" depart="130.00">
        <route edges="B1B0"/>
    </vehicle>
    <vehicle id="131" depart="131.00">
        <route edges="A1A0 A0B0"/>
    </vehicle>
    <vehicle id="132" depart="132.00">
        <route edges="B1A1 A1A0 A0B0 B0B1"/>
    </vehicle>
    <vehicle id="133" depart="133.00">
        <route edges="B0A0 A0A1 A1B1 B1B0"/>
    </vehicle>
    <vehicle id="135" depart="135.00">
        <route edges="B1A1 A1A0"/>
    </vehicle>
    <vehicle id="138" depart="138.00">
        <route edges="A0A1 A1B1 B1B0 B0A0"/>
    </vehicle>
    <vehicle id="140" depart="140.00">
        <route edges="B0B1 B1A1 A1A0 A0B0"/>
    </vehicle>
    <vehicle id="141" depart="141.00">
        <route edges="B0B1 B1A1 A1A0"/>
    </vehicle>
    <vehicle id="142" depart="142.00">
        <route edges="A1B1 B1B0"/>
    </vehicle>
    <vehicle id="146" depart="146.00">
        <route edges="B0B1 B1A1 A1A0"/>
    </vehicle>
    <vehicle id="148" depart="148.00">
        <route edges="A1B1 B1B0 B0A0 A0A1"/>
    </vehicle>
    <vehicle id="149" depart="149.00">
        <route edges="A0A1 A1B1 B1B0"/>
    </vehicle>
    <vehicle id="150" depart="150.00">
        <route edges="B1B0 B0A0"/>
    </vehicle>
    <vehicle id="152" depart="152.00">
        <route edges="A0B0"/>
    </vehicle>
    <vehicle id="154" depart="154.00">
        <route edges="B1A1"/>
    </vehicle>
    <vehicle id="158" depart="158.00">
        <route edges="A1B1 B1B0 B0A0"/>
    </vehicle>
    <vehicle id="164" depart="164.00">
        <route edges="B1A1"/>
    </vehicle>
    <vehicle id="165" depart="165.00">
        <route edges="B1A1 A1A0"/>
    </vehicle>
    <vehicle id="167" depart="167.00">
        <route edges="B1A1"/>
    </vehicle>
    <vehicle id="168" depart="168.00">
        <route edges="A0B0 B0B1 B1A1"/>
    </vehicle>
    <vehicle id="170" depart="170.00">
        <route edges="B1A1 A1A0 A0B0"/>
    </vehicle>
    <vehicle id="172" depart="172.00">
        <route edges="A1A0 A0B0 B0B1 B1A1"/>
    </vehicle>
    <vehicle id="175" depart="175.00">
        <route edges="B1B0 B0A0"/>
    </vehicle>
    <vehicle id="176" depart="176.00">
        <route edges="B1B0 B0A0 A0A1"/>
    </vehicle>
    <vehicle id="179" depart="179.00">
        <route edges="A0A1 A1B1"/>
    </vehicle>
    <vehicle id="180" depart="180.00">
        <route edges="B0B1 B1A1 A1A0"/>
    </vehicle>
    <vehicle id="181" depart="181.00">
        <route edges="B0A0"/>
    </vehicle>
    <vehicle id="182" depart="182.00">
        <route edges="A1B1 B1B0 B0A0"/>
    </vehicle>
    <vehicle id="183" depart="183.00">
        <route edges="A1A0 A0B0 B0B1"/>
    </vehicle>
    <vehicle id="184" depart="184.00">
        <route edges="A0A1 A1B1 B1B0"/>
    </vehicle>
    <vehicle id="186" depart="186.00">
        <route edges="B0B1"/>
    </vehicle>
    <vehicle id="188" depart="188.00">
        <route edges="B0B1 B1A1 A1A0"/>
    </vehicle>
    <vehicle id="189" depart="189.00">
        <route edges="A1A0 A0B0 B0B1 B1A1"/>
    </vehicle>
    <vehicle id="190" depart="190.00">
        <route edges="B0B1 B1A1 A1A0"/>
    </vehicle>
    <vehicle id="195" depart="195.00">
        <route edges="B1B0 B0A0"/>
    </vehicle>
    <vehicle id="198" depart="198.00">
        <route edges="A1B1 B1B0 B0A0"/>
    </vehicle>
    <vehicle id="201" depart="201.00">
        <route edges="A1B1 B1B0"/>
    </vehicle>
    <vehicle id="202" depart="202.00">
        <route edges="B1A1 A1A0 A0B0"/>
    </vehicle>
    <vehicle id="203" depart="203.00">
        <route edges="A0A1 A1B1 B1B0 B0A0"/>
    </vehicle>
    <vehicle id="204" depart="204.00">
        <route edges="B0B1 B1A1 A1A0"/>
    </vehicle>
    <vehicle id="205" depart="205.00">
        <route edges="B1A1"/>
    </vehicle>
    <vehicle id="206" depart="206.00">
        <route edges="B0B1 B1A1 A1A0 A0B0"/>
    </vehicle>
    <vehicle id="211" depart="211.00">
        <route edges="A0B0 B0B1"/>
    </vehicle>
    <vehicle id="214" depart="214.00">
        <route edges="B1A1"/>
    </vehicle>
    <vehicle id="215" depart="215.00">
        <route edges="A0A1 A1B1"/>
    </vehicle>
    <vehicle id="217" depart="217.00">
        <route edges="B0A0 A0A1"/>
    </vehicle>
    <vehicle id="218" depart="218.00">
        <route edges="A0B0 B0B1 B1A1"/>
    </vehicle>
    <vehicle id="221" depart="221.00">
        <route edges="B0A0 A0A1 A1B1 B1B0"/>
    </vehicle>
    <vehicle id="222" depart="222.00">
        <route edges="B1B0 B0A0"/>
    </vehicle>
    <vehicle id="227" depart="227.00">
        <route edges="A0B0 B0B1"/>
    </vehicle>
    <vehicle id="229" depart="229.00">
        <route edges="B0B1 B1A1 A1A0"/>
    </vehicle>
    <vehicle id="231" depart="231.00">
        <route edges="A1A0"/>
    </vehicle>
    <vehicle id="233" depart="233.00">
        <route edges="A0B0 B0B1"/>
    </vehicle>
    <vehicle id="235" depart="235.00">
        <route edges="A1B1 B1B0 B0A0"/>
    </vehicle>
    <vehicle id="237" depart="237.00">
        <route edges="A1B1 B1B0"/>
    </vehicle>
    <vehicle id="239" depart="239.00">
        <route edges="B1A1"/>
    </vehicle>
    <vehicle id="240" depart="240.00">
        <route edges="A1B1 B1B0 B0A0 A0A1"/>
    </vehicle>
    <vehicle id="241" depart="241.00">
        <route edges="A1A0 A0B0 B0B1 B1A1"/>
    </vehicle>
    <vehicle id="244" depart="244.00">
        <route edges="B0A0"/>
    </vehicle>
    <vehicle id="245" depart="245.00">
        <route edges="A0B0"/>
    </vehicle>
    <vehicle id="246" depart="246.00">
        <route edges="A1B1 B1B0 B0A0 A0A1"/>
    </vehicle>
    <vehicle id="247" depart="247.00">
        <route edges="A1A0 A0B0 B0B1"/>
    </vehicle>
    <vehicle id="250" depart="250.00">
        <route edges="B0A0 A0A1"/>
    </vehicle>
    <vehicle id="251" depart="251.00">
        <route edges="A1B1 B1B0 B0A0"/>
    </vehicle>
    <vehicle id="254" depart="254.00">
        <route edges="A0A1 A1B1"/>
    </vehicle>
    <vehicle id="255" depart="255.00">
        <route edges="A0B0 B0B1 B1A1 A1A0"/>
    </vehicle>
    <vehicle id="257" depart="257.00">
        <route edges="B1A1"/>
    </vehicle>
    <vehicle id="259" depart="259.00">
        <route edges="A0A1 A1B1 B1B0 B0A0"/>
    </vehicle>
    <vehicle id="261" depart="261.00">
        <route edges="B0B1 B1A1"/>
    </vehicle>
    <vehicle id="262" depart="262.00">
        <route edges="B0B1 B1A1"/>
    </vehicle>
    <vehicle id="265" depart="265.00">
        <route edges="A0B0 B0B1"/>
    </vehicle>
    <vehicle id="267" depart="267.00">
        <route edges="B0B1 B1A1"/>
    </vehicle>
    <vehicle id="271" depart="271.00">
        <route edges="A0A1"/>
    </vehicle>
    <vehicle id="272" depart="272.00">
        <route edges="A1A0 A0B0 B0B1"/>
    </vehicle>
    <vehicle id="273" depart="273.00">
        <route edges="B1B0 B0A0 A0A1 A1B1"/>
    </vehicle>
    <vehicle id="275" depart="275.00">
        <route edges="B0B1"/>
    </vehicle>
    <vehicle id="278" depart="278.00">
        <route edges="A0A1 A1B1 B1B0"/>
    </vehicle>
    <vehicle id="279" depart="279.00">
        <route edges="B1A1 A1A0"/>
    </vehicle>
    <vehicle id="282" depart="282.00">
        <route edges="B1A1"/>
    </vehicle>
    <vehicle id="283" depart="283.00">
        <route edges="A0A1 A1B1 B1B0"/>
    </vehicle>
    <vehicle id="284" depart="284.00">
        <route edges="B0B1 B1A1"/>
    </vehicle>
    <vehicle id="287" depart="287.00">
        <route edges="A1A0 A0B0 B0B1 B1A1"/>
    </vehicle>
    <vehicle id="288" depart="288.00">
        <route edges="B0A0 A0A1 A1B1"/>
    </vehicle>
    <vehicle id="290" depart="290.00">
        <route edges="A1A0 A0B0 B0B1 B1A1"/>
    </vehicle>
    <vehicle id="293" depart="293.00">
        <route edges="A1B1 B1B0 B0A0"/>
    </vehicle>
    <vehicle id="294" depart="294.00">
        <route edges="A1B1 B1B0 B0A0 A0A1"/>
    </vehicle>
    <vehicle id="295" depart="295.00">
        <route edges="B1A1 A1A0 A0B0"/>
    </vehicle>
    <vehicle id="296" depart="296.00">
        <route edges="A0B0 B0B1 B1A1"/>
    </vehicle>
    <vehicle id="298" depart="298.00">
        <route edges="B0B1 B1A1 A1A0"/>
    </vehicle>
    <vehicle id="299" depart="299.00">
        <route edges="A0A1 A1B1 B1B0"/>
    </vehicle>
    <vehicle id="302" depart="302.00">
        <route edges="B0B1"/>
    </vehicle>
    <vehicle id="305" depart="305.00">
        <route edges="B0B1 B1A1 A1A0"/>
    </vehicle>
    <vehicle id="306" depart="306.00">
        <route edges="B0A0 A0A1 A1B1"/>
    </vehicle>
    <vehicle id="307" depart="307.00">
        <route edges="B0A0 A0A1 A1B1"/>
    </vehicle>
    <vehicle id="308" depart="308.00">
        <route edges="B0B1 B1A1 A1A0"/>
    </vehicle>
    <vehicle id="309" depart="309.00">
        <route edges="B0B1 B1A1 A1A0"/>
    </vehicle>
    <vehicle id="313" depart="313.00">
        <route edges="A0B0"/>
    </vehicle>
    <vehicle id="315" depart="315.00">
        <route edges="B1B0 B0A0"/>
    </vehicle>
    <vehicle id="317" depart="317.00">
        <route edges="A0B0"/>
    </vehicle>
    <vehicle id="320" depart="320.00">
        <route edges="B1B0 B0A0"/>
    </vehicle>
    <vehicle id="321" depart="321.00">
        <route edges="B0B1 B1A1 A1A0 A0B0"/>
    </vehicle>
    <vehicle id="324" depart="324.00">
        <route edges="A1B1"/>
    </vehicle>
    <vehicle id="326" depart="326.00">
        <route edges="B1B0 B0A0 A0A1 A1B1"/>
    </vehicle>
    <vehicle id="331" depart="331.00">
        <route edges="B1B0 B0A0 A0A1"/>
    </vehicle>
    <vehicle id="333" depart="333.00">
        <route edges="B1A1 A1A0 A0B0"/>
    </vehicle>
    <vehicle id="334" depart="334.00">
        <route edges="B0A0 A0A1 A1B1"/>
    </vehicle>
    <vehicle id="337" depart="337.00">
        <route edges="B0A0"/>
    </vehicle>
    <vehicle id="339" depart="339.00">
        <route edges="A0B0"/>
    </vehicle>
    <vehicle id="340" depart="340.00">
        <route edges="B0B1 B1A1 A1A0 A0B0"/>
    </vehicle>
    <vehicle id="342" depart="342.00">
        <route edges="A0A1 A1B1"/>
    </vehicle>
    <vehicle id="344" depart="344.00">
        <route edges="A0B0 B0B1"/>
    </vehicle>
    <vehicle id="347" depart="347.00">
        <route edges="B1A1 A1A0 A0B0 B0B1"/>
    </vehicle>
    <vehicle id="349" depart="349.00">
        <route edges="A1B1 B1B0 B0A0"/>
    </vehicle>
    <vehicle id="352" depart="352.00">
        <route edges="A0B0 B0B1 B1A1 A1A0"/>
    </vehicle>
    <vehicle id="355" depart="355.00">
        <route edges="B0B1"/>
    </vehicle>
    <vehicle id="356" depart="356.00">
        <route edges="B1B0 B0A0"/>
    </vehicle>
    <vehicle id="357" depart="357.00">
        <route edges="A1B1 B1B0 B0A0 A0A1"/>
    </vehicle>
    <vehicle id="358" depart="358.00">
        <route edges="A0A1 A1B1"/>
    </vehicle>
    <vehicle id="359" depart="359.00">
        <route edges="A1A0"/>
    </vehicle>
    <vehicle id="360" depart="360.00">
        <route edges="A0A1 A1B1 B1B0"/>
    </vehicle>
    <vehicle id="362" depart="362.00">
        <route edges="B1B0"/>
    </vehicle>
    <vehicle id="363" depart="363.00">
        <route edges="B0B1 B1A1 A1A0"/>
    </vehicle>
    <vehicle id="368" depart="368.00">
        <route edges="A1B1 B1B0 B0A0 A0A1"/>
    </vehicle>
    <vehicle id="369" depart="369.00">
        <route edges="A1A0"/>
    </vehicle>
    <vehicle id="370" depart="370.00">
        <route edges="B0B1 B1A1"/>
    </vehicle>
    <vehicle id="371" depart="371.00">
        <route edges="A1A0 A0B0 B0B1"/>
    </vehicle>
    <vehicle id="376" depart="376.00">
        <route edges="A1B1 B1B0 B0A0"/>
    </vehicle>
    <vehicle id="378" depart="378.00">
        <route edges="B0A0 A0A1 A1B1"/>
    </vehicle>
    <vehicle id="379" depart="379.00">
        <route edges="A0B0 B0B1 B1A1 A1A0"/>
    </vehicle>
    <vehicle id="380" depart="380.00">
        <route edges="B1A1 A1A0 A0B0 B0B1"/>
    </vehicle>
    <vehicle id="381" depart="381.00">
        <route edges="B1A1 A1A0 A0B0"/>
    </vehicle>
    <vehicle id="382" depart="382.00">
        <route edges="B0A0 A0A1 A1B1 B1B0"/>
    </vehicle>
    <vehicle id="384" depart="384.00">
        <route edges="A0A1 A1B1 B1B0"/>
    </vehicle>
    <vehicle id="387" depart="387.00">
        <route edges="B0A0 A0A1"/>
    </vehicle>
    <vehicle id="388" depart="388.00">
        <route edges="B1B0"/>
    </vehicle>
    <vehicle id="389" depart="389.00">
        <route edges="A1B1 B1B0 B0A0 A0A1"/>
    </vehicle>
    <vehicle id="392" depart="392.00">
        <route edges="A1A0 A0B0 B0B1 B1A1"/>
    </vehicle>
    <vehicle id="394" depart="394.00">
        <route edges="B0A0 A0A1 A1B1"/>
    </vehicle>
    <vehicle id="395" depart="395.00">
        <route edges="B1B0 B0A0"/>
    </vehicle>
    <vehicle id="397" depart="397.00">
        <route edges="A1A0 A0B0 B0B1 B1A1"/>
    </vehicle>
    <vehicle id="398" depart="398.00">
        <route edges="A1B1 B1B0"/>
    </vehicle>
    <vehicle id="400" depart="400.00">
        <route edges="A1A0"/>
    </vehicle>
    <vehicle id="401" depart="401.00">
        <route edges="B0A0 A0A1 A1B1 B1B0"/>
    </vehicle>
    <vehicle id="404" depart="404.00">
        <route edges="B0A0"/>
    </vehicle>
    <vehicle id="406" depart="406.00">
        <route edges="A0B0 B0B1"/>
    </vehicle>
    <vehicle id="409" depart="409.00">
        <route edges="B0B1"/>
    </vehicle>
    <vehicle id="411" depart="411.00">
        <route edges="B0B1 B1A1"/>
    </vehicle>
    <vehicle id="412" depart="412.00">
        <route edges="B1B0 B0A0 A0A1 A1B1"/>
    </vehicle>
    <vehicle id="413" depart="413.00">
        <route edges="A0A1 A1B1 B1B0 B0A0"/>
    </vehicle>
    <vehicle id="416" depart="416.00">
        <route edges="B0A0 A0A1 A1B1"/>
    </vehicle>
    <vehicle id="418" depart="418.00">
        <route edges="B0B1 B1A1 A1A0 A0B0"/>
    </vehicle>
    <vehicle id="419" depart="419.00">
        <route edges="A1B1 B1B0"/>
    </vehicle>
    <vehicle id="420" depart="420.00">
        <route edges="A1A0 A0B0 B0B1"/>
    </vehicle>
    <vehicle id="421" depart="421.00">
        <route edges="B0B1 B1A1"/>
    </vehicle>
    <vehicle id="422" depart="422.00">
        <route edges="B1A1"/>
    </vehicle>
    <vehicle id="424" depart="424.00">
        <route edges="B0B1 B1A1"/>
    </vehicle>
    <vehicle id="427" depart="427.00">
        <route edges="B1B0"/>
    </vehicle>
    <vehicle id="433" depart="433.00">
        <route edges="A1A0"/>
    </vehicle>
    <vehicle id="440" depart="440.00">
        <route edges="A1A0"/>
    </vehicle>
    <vehicle id="446" depart="446.00">
        <route edges="A1A0 A0B0 B0B1 B1A1"/>
    </vehicle>
    <vehicle id="449" depart="449.00">
        <route edges="B0A0"/>
    </vehicle>
    <vehicle id="453" depart="453.00">
        <route edges="B0B1"/>
    </vehicle>
    <vehicle id="454" depart="454.00">
        <route edges="A0A1 A1B1 B1B0 B0A0"/>
    </vehicle>
    <vehicle id="455" depart="455.00">
        <route edges="A1B1 B1B0"/>
    </vehicle>
    <vehicle id="456" depart="456.00">
        <route edges="A1A0 A0B0 B0B1 B1A1"/>
    </vehicle>
    <vehicle id="459" depart="459.00">
        <route edges="B0B1"/>
    </vehicle>
    <vehicle id="460" depart="460.00">
        <route edges="B0B1 B1A1"/>
    </vehicle>
    <vehicle id="462" depart="462.00">
        <route edges="B0B1 B1A1 A1A0"/>
    </vehicle>
    <vehicle id="463" depart="463.00">
        <route edges="A1B1 B1B0 B0A0"/>
    </vehicle>
    <vehicle id="465" depart="465.00">
        <route edges="A1A0 A0B0 B0B1"/>
    </vehicle>
    <vehicle id="466" depart="466.00">
        <route edges="A0B0"/>
    </vehicle>
    <vehicle id="467" depart="467.00">
        <route edges="B0A0 A0A1 A1B1 B1B0"/>
    </vehicle>
    <vehicle id="468" depart="468.00">
        <route edges="B0A0 A0A1 A1B1 B1B0"/>
    </vehicle>
    <vehicle id="469" depart="469.00">
        <route edges="B1A1 A1A0"/>
    </vehicle>
    <vehicle id="471" depart="471.00">
        <route edges="B1A1 A1A0 A0B0 B0B1"/>
    </vehicle>
    <vehicle id="477" depart="477.00">
        <route edges="A1A0 A0B0 B0B1 B1A1"/>
    </vehicle>
    <vehicle id="478" depart="478.00">
        <route edges="A0A1 A1B1 B1B0 B0A0"/>
    </vehicle>
    <vehicle id="483" depart="483.00">
        <route edges="A0A1 A1B1 B1B0"/>
    </vehicle>
    <vehicle id="484" depart="484.00">
        <route edges="B0A0 A0A1 A1B1 B1B0"/>
    </vehicle>
    <vehicle id="490" depart="490.00">
        <route edges="A0A1 A1B1 B1B0"/>
    </vehicle>
    <vehicle id="492" depart="492.00">
        <route edges="B0B1"/>
    </vehicle>
    <vehicle id="493" depart="493.00">
        <route edges="B1B0 B0A0 A0A1 A1B1"/>
    </vehicle>
    <vehicle id="494" depart="494.00">
        <route edges="B0B1 B1A1 A1A0 A0B0"/>
    </vehicle>
    <vehicle id="495" depart="495.00">
        <route edges="A1B1 B1B0 B0A0 A0A1"/>
    </vehicle>
    <vehicle id="496" depart="496.00">
        <route edges="A1B1"/>
    </vehicle>
    <vehicle id="497" depart="497.00">
        <route edges="B1B0 B0A0 A0A1"/>
    </vehicle>
    <vehicle id="501" depart="501.00">
        <route edges="B0A0 A0A1 A1B1 B1B0"/>
    </vehicle>
    <vehicle id="505" depart="505.00">
        <route edges="B0B1"/>
    </vehicle>
    <vehicle id="506" depart="506.00">
        <route edges="B0A0 A0A1"/>
    </vehicle>
    <vehicle id="507" depart="507.00">
        <route edges="B1A1 A1A0 A0B0"/>
    </vehicle>
    <vehicle id="510" depart="510.00">
        <route edges="A0B0"/>
    </vehicle>
    <vehicle id="511" depart="511.00">
        <route edges="B1A1 A1A0"/>
    </vehicle>
    <vehicle id="514" depart="514.00">
        <route edges="A0B0"/>
    </vehicle>
    <vehicle id="515" depart="515.00">
        <route edges="A1A0 A0B0"/>
    </vehicle>
    <vehicle id="518" depart="518.00">
        <route edges="A0B0 B0B1 B1A1 A1A0"/>
    </vehicle>
    <vehicle id="523" depart="523.00">
        <route edges="A0A1 A1B1 B1B0 B0A0"/>
    </vehicle>
    <vehicle id="524" depart="524.00">
        <route edges="B1B0 B0A0 A0A1"/>
    </vehicle>
    <vehicle id="525" depart="525.00">
        <route edges="B1A1"/>
    </vehicle>
    <vehicle id="526" depart="526.00">
        <route edges="B0A0 A0A1 A1B1"/>
    </vehicle>
    <vehicle id="527" depart="527.00">
        <route edges="B1B0 B0A0 A0A1"/>
    </vehicle>
    <vehicle id="528" depart="528.00">
        <route edges="A1B1"/>
    </vehicle>
    <vehicle id="530" depart="530.00">
        <route edges="B1B0 B0A0 A0A1"/>
    </vehicle>
    <vehicle id="531" depart="531.00">
        <route edges="A0A1 A1B1 B1B0 B0A0"/>
    </vehicle>
    <vehicle id="535" depart="535.00">
        <route edges="B0A0 A0A1 A1B1"/>
    </vehicle>
    <vehicle id="536" depart="536.00">
        <route edges="B0A0 A0A1"/>
    </vehicle>
    <vehicle id="537" depart="537.00">
        <route edges="B0B1 B1A1"/>
    </vehicle>
    <vehicle id="538" depart="538.00">
        <route edges="B0B1 B1A1"/>
    </vehicle>
    <vehicle id="539" depart="539.00">
        <route edges="B0B1 B1A1 A1A0 A0B0"/>
    </vehicle>
    <vehicle id="542" depart="542.00">
        <route edges="A1B1 B1B0 B0A0 A0A1"/>
    </vehicle>
    <vehicle id="544" depart="544.00">
        <route edges="A1A0 A0B0"/>
    </vehicle>
    <vehicle id="545" depart="545.00">
        <route edges="B1B0 B0A0 A0A1"/>
    </vehicle>
    <vehicle id="549" depart="549.00">
        <route edges="B0A0"/>
    </vehicle>
    <vehicle id="551" depart="551.00">
        <route edges="A1A0 A0B0 B0B1"/>
    </vehicle>
    <vehicle id="552" depart="552.00">
        <route edges="B1A1"/>
    </vehicle>
    <vehicle id="556" depart="556.00">
        <route edges="B0B1 B1A1 A1A0 A0B0"/>
    </vehicle>
    <vehicle id="558" depart="558.00">
        <route edges="A1A0 A0B0 B0B1 B1A1"/>
    </vehicle>
    <vehicle id="564" depart="564.00">
        <route edges="A1A0 A0B0"/>
    </vehicle>
    <vehicle id="565" depart="565.00">
        <route edges="B0B1 B1A1 A1A0"/>
    </vehicle>
    <vehicle id="570" depart="570.00">
        <route edges="B0B1 B1A1 A1A0 A0B0"/>
    </vehicle>
    <vehicle id="572" depart="572.00">
        <route edges="A1A0 A0B0 B0B1"/>
    </vehicle>
    <vehicle id="574" depart="574.00">
        <route edges="A0A1"/>
    </vehicle>
    <vehicle id="576" depart="576.00">
        <route edges="B0B1 B1A1 A1A0"/>
    </vehicle>
    <vehicle id="583" depart="583.00">
        <route edges="A1B1 B1B0 B0A0"/>
    </vehicle>
    <vehicle id="585" depart="585.00">
        <route edges="A0B0"/>
    </vehicle>
    <vehicle id="586" depart="586.00">
        <route edges="A1A0"/>
    </vehicle>
    <vehicle id="590" depart="590.00">
        <route edges="B1A1"/>
    </vehicle>
    <vehicle id="592" depart="592.00">
        <route edges="A0A1"/>
    </vehicle>
    <vehicle id="594" depart="594.00">
        <route edges="B0A0"/>
    </vehicle>
    <vehicle id="596" depart="596.00">
        <route edges="A0A1"/>
    </vehicle>
    <vehicle id="597" depart="597.00">
        <route edges="A1A0 A0B0 B0B1 B1A1"/>
    </vehicle>
    <vehicle id="599" depart="599.00">
        <route edges="B1B0 B0A0 A0A1"/>
    </vehicle>
    <vehicle id="600" depart="600.00">
        <route edges="B1A1 A1A0 A0B0"/>
    </vehicle>
    <vehicle id="601" depart="601.00">
        <route edges="B0A0"/>
    </vehicle>
    <vehicle id="603" depart="603.00">
        <route edges="A1A0"/>
    </vehicle>
    <vehicle id="605" depart="605.00">
        <route edges="A0A1 A1B1 B1B0 B0A0"/>
    </vehicle>
    <vehicle id="607" depart="607.00">
        <route edges="B0B1 B1A1"/>
    </vehicle>
    <vehicle id="608" depart="608.00">
        <route edges="B1A1 A1A0 A0B0"/>
    </vehicle>
    <vehicle id="609" depart="609.00">
        <route edges="A0B0"/>
    </vehicle>
    <vehicle id="611" depart="611.00">
        <route edges="B0B1 B1A1 A1A0 A0B0"/>
    </vehicle>
    <vehicle id="613" depart="613.00">
        <route edges="B1A1"/>
    </vehicle>
    <vehicle id="614" depart="614.00">
        <route edges="A1B1 B1B0"/>
    </vehicle>
    <vehicle id="617" depart="617.00">
        <route edges="B0B1 B1A1 A1A0 A0B0"/>
    </vehicle>
    <vehicle id="618" depart="618.00">
        <route edges="A0A1 A1B1"/>
    </vehicle>
    <vehicle id="619" depart="619.00">
        <route edges="A1A0"/>
    </vehicle>
    <vehicle id="620" depart="620.00">
        <route edges="A0A1 A1B1 B1B0 B0A0"/>
    </vehicle>
    <vehicle id="625" depart="625.00">
        <route edges="B0A0 A0A1 A1B1"/>
    </vehicle>
    <vehicle id="627" depart="627.00">
        <route edges="B1B0 B0A0 A0A1 A1B1"/>
    </vehicle>
    <vehicle id="628" depart="628.00">
        <route edges="B1A1 A1A0 A0B0 B0B1"/>
    </vehicle>
    <vehicle id="631" depart="631.00">
        <route edges="A0A1 A1B1 B1B0"/>
    </vehicle>
    <vehicle id="632" depart="632.00">
        <route edges="A1A0 A0B0 B0B1"/>
    </vehicle>
    <vehicle id="635" depart="635.00">
        <route edges="A1B1 B1B0 B0A0"/>
    </vehicle>
    <vehicle id="636" depart="636.00">