<?xml version="1.0" encoding="UTF-8"?>

<!-- generated on Mon Dec  9 20:37:31 2019 by Eclipse SUMO duarouter Version 1.2.0
<configuration xmlns:xsi="http://www.w3.org/2001/XMLSchema-instance" xsi:noNamespaceSchemaLocation="http://sumo.dlr.de/xsd/duarouterConfiguration.xsd">

    <input>
        <net-file value="rand_2000.net.xml"/>
        <route-files value="trips.trips.xml"/>
    </input>

    <output>
        <output-file value="rand_2000.rou.xml"/>
        <alternatives-output value="rand_2000.rou.alt.xml"/>
    </output>

    <time>
        <begin value="0"/>
        <end value="3600"/>
    </time>

    <report>
        <no-warnings value="true"/>
        <ignore-errors value="true"/>
        <no-step-log value="true"/>
    </report>

</configuration>
-->

<routes xmlns:xsi="http://www.w3.org/2001/XMLSchema-instance" xsi:noNamespaceSchemaLocation="http://sumo.dlr.de/xsd/routes_file.xsd">
    <vehicle id="0" depart="0.00">
        <route edges="-105988 -72795 -55218 -50801 50815 52794 -31966 -29265 -27822 27828 39803 -41316 -38311 -37523 37524 -10556 10568 11263 11976 12904 13837 17377 21811 26680 27852 50234 52314 -51117 -49241 100943 -98559 -85416 -82706 -35991 35987"/>
    </vehicle>
    <vehicle id="1" depart="1.00">
        <route edges="-63108 -52313 -29280 29279 45513 45529 52258 -51086 51076 -42549 -37276 -32379 -31406 31394 -32367 -13534 -12779 -11203 -772 771 1658 -1663 7738 8301 8951 9134 11015 34969"/>
    </vehicle>
    <vehicle id="2" depart="2.00">
        <route edges="-100078 -97675 -93655 -91292 -25579 25578 -19885 15498 19889 32057 -31470 -11210 -10926 10936 11211 -14209 -5024 -6683 -10490 10494 11242 11816 45086 86018 88162 90521"/>
    </vehicle>
    <vehicle id="3" depart="3.00">
        <route edges="-40078 -37608 -31471 31470 37590 -37612 -32088 11438 12145 12678 -12161 -11171 -9814 9816 9952 10136 10613 19909 19912 20310 22082 23046 30932 32308 -33193 33192 35868 -44397 -42234 69102 79910"/>
    </vehicle>
    <vehicle id="4" depart="4.00">
        <route edges="42578 -42404 -8577 -8022 -1787 -1658 -771 -745 -620 -493 -467 -439 390 -320 324 372 5178 5448 7210 9281 -9283 10556 25435 41271 60063 62947 -83462"/>
    </vehicle>
    <vehicle id="5" depart="5.00">
        <route edges="-97362 -96084 -77804 -41310 -41297 -32845 -29253 29265 31964 -31165 -29537 -6884 6886 10739 -10615 10611 14939 -14358 14951 15514 25612 36661 -37561 37560 39937 39941 76460 -76559 -55134 55140 56477 91299 -102844 105448"/>
    </vehicle>
    <vehicle id="6" depart="6.00">
        <route edges="30849 37590 -37612 -32088 -10592 -10125 -5452 20266 24292 -23069 -22380 -12761 -2784 818 1392 6138 7952 29130"/>
    </vehicle>
    <vehicle id="7" depart="7.00">
        <route edges="16727 -16727 -16228 -15662 -10468 -4308 -2403 -934 -783 777 -813 -629 -477 479 817 20266 24292 -23069 -22106 -6878 -6581 4243 4465 4840 6880 6884 29537 31161 33338 -34576 -34553 34571 100542 103354 108146"/>
    </vehicle>
    <vehicle id="8" depart="8.00">
        <route edges="-3366 3364 -815 817 20266 -19897 -18492 -12161 -10609 -10131 10133 14358 21089 22071 22989 33022 33304 34580 89249 91847 -108188 108206"/>
    </vehicle>
    <vehicle id="9" depart="9.00">
        <route edges="25603 -25603 -24303 -22973 -22071 -21089 -14358 -10133 10131 10609 12161 -12678 -12145 -11438 32088 37612 -37590 -30849 30851 -32062 32068 32983 33803 -33954 -20018 20016 35438 62725 67909 73630"/>
    </vehicle>
    <vehicle id="10" depart="10.00">
        <route edges="-50421 -48594 -47076 -18089 -17398 -812 813 -777 -755 -739 749 11203 28594 29878 31432 44849 46517 51090 51117 80194 -80194"/>
    </vehicle>
    <vehicle id="11" depart="11.00">
        <route edges="-104348 -101580 -99188 94886 96748 106723 -103866 -100967 -59390 -38131 33942 -21113 -16692 -8577 -8022 -1787 -1663 -936 940 3386 -3370 -3095 3091 3364 -815 817 5452 10125 10592 11438 12149 19883 47102 48735"/>
    </vehicle>
    <vehicle id="12" depart="12.00">
        <route edges="37950 59390 -61879 61881 64725 67319 69499 -37299 37305 69577"/>
    </vehicle>
    <vehicle id="13" depart="13.00">
        <route edges="-42713 -40900 -11799 -8710 -8311 -7738 1663 -1658 -771 772 11203 31434 32434 33479 39155"/>
    </vehicle>
    <vehicle id="14" depart="14.00">
        <route edges="-76880 76873 -32125 32127 33193 34576 -33338 -31161 -29537 -6884 -6880 -4840 -4465 -4243 6581 6878 22106 23069 -24292 -20266 -817 815 -3364 3366 4060 4306 7252 10886 11662 18674 23476"/>
    </vehicle>
    <vehicle id="15" depart="15.00">
        <route edges="-11251 -9912 -5056 -4668 3563 -3554 -3370 -3095 3091 3364 -815 817 20266 24292 -23069 -22106 -6878 -6581 4243 4465 4840 6880 6884 29537 31161 33338 -34576 -33193 -32127 32117 -40451 40455 44462 46064 61328 86940 -86940 -61328"/>
    </vehicle>
    <vehicle id="16" depart="16.00">
        <route edges="-68838 45986 -44276 -22964 22963 23039 24313 25609 19909 19912 20310 21093 29537 31165 -31964 -29265 -27822 27828 39803 -41316 41352 76117 -76117 -41352"/>
    </vehicle>
    <vehicle id="17" depart="17.00">
        <route edges="-23476 -18674 -11662 -10886 -7252 -4306 -4017 -3554 -3386 -940 934 2403 4308 10468 15662 16228 16727 18349 44910"/>
    </vehicle>
    <vehicle id="18" depart="18.00">
        <route edges="-69560 67308 69499 -37299 -35987 35991 82706 85422 -101087 -100943 53123 61866 -62959 62960 -62960"/>
    </vehicle>
    <vehicle id="19" depart="19.00">
        <route edges="-100084 -97675 -93655 -91292 -25579 25578 -19885 15498 19889 32057 -31470 -11210 -10926 10936 11211 -14209 -5024 5777 6318 13801 14201 18422"/>
    </vehicle>
    <vehicle id="20" depart="20.00">
        <route edges="-97962 -96121 -34580 34578 94024 97971 -97839 -96022 -93816 -91418 -91279 -86713 -58330 -25565 -24264 -22938 -19885 15498 19889 32057 -31470 -11210 -10926 10936 11213 16199 20510 21308 46734 47859 53697 67463 94744 96627"/>
    </vehicle>
    <vehicle id="21" depart="21.00">
        <route edges="55642 -55642 -53976 -48089 -46765 14583 -14196 14188 -16215 -10057 -8580 -8040 -1787 -1658 -771 -745 -620 -493 -467 -439 390 -320 324 372 5178 5448 7210 9281 -9283 10556 -37524 37523 38311 41352 76117"/>
    </vehicle>
    <vehicle id="22" depart="22.00">
        <route edges="75858 -75858 -70295 -67950 48173 51933 60070 62959 -61866 -53123 -35973 35967 -35992 -34645 -33475 33473 34631 35977 37292 37950 -37950"/>
    </vehicle>
    <vehicle id="23" depart="23.00">
        <route edges="56605 56615 -38853 -28056 -19912 -19030 -10739 -6886 -6742 -4281 10000 -10104 -4832 -2282 4829 -5426 5438 8365 8834 20249 21038 25509 38459 50404 56100 112432"/>
    </vehicle>
    <vehicle id="24" depart="24.00">
        <route edges="75658 -75658 -27784 -20011 -13803 13813 -15974 -10494 10490 -6326 -6310 14198 -3872 3882 4023 -4060 -3366 3364 -815 -479 479"/>
    </vehicle>
    <vehicle id="25" depart="25.00">
        <route edges="108183 -91592 -32117 32127 33193 34576 -33338 -31161 -29537 -6884 -6742 -4248 -4197 -2969 -2760 -2426 -155 154 -265 -148 -55 51 94 825 -825"/>
    </vehicle>
    <vehicle id="26" depart="26.00">
        <route edges="-93312 -91098 -88616 -86593 -74232 -72407 -68242 -50580 -48734 -47102 -19883 -12149 12145 12678 -12161 -11171 -9814 9816 9952 10136 10613 34546 82241 84210 -56615 -55200 -25616 25618 27024 28039 29408 33188 37014 38802 46020"/>
    </vehicle>
    <vehicle id="27" depart="27.00">
        <route edges="27784 -27784 -20011 -13803 13813 -15974 -10494 10490 -6326 -6310 14198 -3872 3882 4023 -4060 -3366 3364 -815 -479 -446 452 480 -488 43 69 2426 2760 2977 9984 14903 14910 29250 29253 32845 41297 41310 77804 96084 97362"/>
    </vehicle>
    <vehicle id="28" depart="28.00">
        <route edges="-82049 -79761 -78280 -34532 -27018 -15510 15514 16163 18189 -24240 -22938 -19885 15498 19889 32057 -31470 31471 37604 38535 39982 -45766 -43885 -39960"/>
    </vehicle>
    <vehicle id="29" depart="29.00">
        <route edges="-940 940 1668 3103 3380 3701 6777 15682 32459 -32068 -30842 -29369 29375 55122 105355"/>
    </vehicle>
    <vehicle id="30" depart="30.00">
        <route edges="-113431 -111209 -108365 -106364 -100898 -67274 -60482 -21828 -21048 -20249 -8834 -8365 -5438 5426 -4829 2282 4832 10104 29540 -29248 14903 14910 -35935 -31157 31161 34599 30932 -29420 29418 31028 32234 37791 46159"/>
    </vehicle>
    <vehicle id="31" depart="31.00">
        <route edges="-26546 -7952 -6138 -1392 -818 2426 2758 4243 4457 6729 -10137 -10134 10136 10613"/>
    </vehicle>
    <vehicle id="32" depart="32.00">
        <route edges="-49841 -42893 -16959 16913 -11237 -9876 -7793 14198 6777 -11211 -10936 10926 11210 31470 -32057 -19889 -14936 -14931 19883 47116 52722 112548"/>
    </vehicle>
    <vehicle id="33" depart="33.00">
        <route edges="-33803 -32983 -32068 32062 -30851 30849 37590 -37612 -32088 11438 12145 12678 -12161 -11171 -9814 9816 9952 10136 10613 19909 19912 20310 55340 56889 84665 87103 98043"/>
    </vehicle>
    <vehicle id="34" depart="34.00">
        <route edges="-52714 -47084 -19883 -12149 -11438 -10592 -10125 -5452 -817 815 -3364 -3091 3095 3370 -3386 -940 936 7738 8301 8951 9102"/>
    </vehicle>
    <vehicle id="35" depart="35.00">
        <route edges="-95692 -93152 -60367 60365 -10000 4281 6742 6886 10739 -10615 10611 14939 -14358 14951 15510 27014 33081 34472 42222"/>
    </vehicle>
    <vehicle id="36" depart="36.00">
        <route edges="-64725 -61881 -37944 37952 59435"/>
    </vehicle>
    <vehicle id="37" depart="37.00">
        <route edges="-109106 -96828 -94969 -60025 -57713 57711 -45077 -43010 46799 51774 -53988 -27784 37460 -36354 62725 67909 73716"/>
    </vehicle>
    <vehicle id="38" depart="38.00">
        <route edges="-18405 -16903 -15714 -12821 -7789 -5263 -3878 -3376 -3103 -1668 -940 936 1663 -1658 -771 772 11203 28594 29878 31432 44849 46517 51090 51093 59351 85370 -85377 59355 -90536 -88279 81066 -81066"/>
    </vehicle>
    <vehicle id="39" depart="39.00">
        <route edges="-49933 -48126 -11810 -11242 -10494 10490 -6326 -6310 14198 -3872 3882 4023 -4060 -3366 3364 -815 817 20266 24292 -23069 -22106 -6878 -6581 4243 4465 4840 6880 6884 29537 31161 33338 34598 -50838 50839 52813 58752 61172 63794"/>
    </vehicle>
    <vehicle id="40" depart="40.00">
        <route edges="67048 -67048 -58964 -27037 -25622 -24331 -10615 -10136 -9952 -9816 9814 11171 12161 18492 19897 -20266 -817 815 -3364 -3091 3095 3370 -3386 -940 936 4131 4172 4213 10057 19960 -19490 19484 -31499 28748 33918 33920 51634 -51625 45033 -38105 38117 73450 104368 108963"/>
    </vehicle>
    <vehicle id="41" depart="41.00">
        <route edges="9281 -9281 -7210 -5448 -5178 -372 370 -271 -154 155 2784 12751 -12706 6878 9818 11171 -10609 10603 18189 -25563 25577 -25585 34171 56461 -55134 55140 56477 91299 -102844"/>
    </vehicle>
    <vehicle id="42" depart="42.00">
        <route edges="-85989 -83087 -80727 -70034 -67784 -55642 -53976 -48089 -46765 -14146 -11235 -9876 8317 -10464 -10054 -9084 -2403 -934 -783 785 1997 2948 4127 4498 4864 5253 36003 40738 101311"/>
    </vehicle>
    <vehicle id="43" depart="43.00">
        <route edges="75858 -75858 -70295 -67950 -33976 -32830 22892 22910 -12101 12091 -8826 -8365 -5438 -5178 -372 -324 320 -146 -55 -11 7 29 273 455 633 812 -3364 9075 13540 -12788 -11208 11210 31471 32084 32993 -32061"/>
    </vehicle>
    <vehicle id="44" depart="44.00">
        <route edges="-105423 -55122 -29375 29369 30842 32068 -32459 -15682 -6768 -5263 -3878 3882 5022 -5032 5056 9912 11251 -11251 -9912"/>
    </vehicle>
    <vehicle id="45" depart="45.00">
        <route edges="-104348 -101580 -99188 94886 96748 106723 -103866 -100967 -64726 64727 67313"/>
    </vehicle>
    <vehicle id="46" depart="46.00">
        <route edges="-20588 -19997 -14182 14188 -14548 -10468 -4308 -2403 -934 -783 777 -813 -629 -477 479 817 20266 20270"/>
    </vehicle>
    <vehicle id="47" depart="47.00">
        <route edges="-107118 -77649 -75858 -70295 -67950 -33976 -32830 22892 22910 -12101 12091 -8826 -8365 -5438 -5178 -372 -324 320 -146 -55 -11 7 29 273 455 633 812 -3364 3366 -9844 -9724 5263 6768 15682 20510 21308 28723 33809 90020 101451"/>
    </vehicle>
    <vehicle id="48" depart="48.00">
        <route edges="-55685 -55680 -51919 -48144 -43632 -27852 27838 -12101 12091 -8826 -8365 -5438 5426 -4829 2282 4832 10104 -10000 -2977 2969 -6586 6594 -6594"/>
    </vehicle>
    <vehicle id="49" depart="49.00">
        <route edges="37299 -37299 -35987 35991 82706 85422 -101087 -100943 49241 51117 -52314 -50234 -27852 27838 -12101 12091 -8826 -8365 -5438 5426 -4829 2282 4832 10104 29540 30608 43307 70575 99685 112138"/>
    </vehicle>
    <vehicle id="50" depart="50.00">
        <route edges="-106226 -103390 -55233 55247 56655 96108 -96121 -34580 34578 94024 97971 -97839 -96022 -93816 -91418 -91279 -86713 -58330 -25565 -24264 -22938 -19885 15498 19889 32057 -31470 31471 32084 32993 34159 56356 58353 60552 -60552"/>
    </vehicle>
    <vehicle id="51" depart="51.00">
        <route edges="-89807 -87495 -85499 -19951 -13565 -13540 -9408 -5452 20266 24292 -23069 -22106 -6878 -6581 -2758 2760 2977 9984 14903 14910 29250 29253 32845 41297 41300 63007 65489 95436 -95430 95430"/>
    </vehicle>
    <vehicle id="52" depart="52.00">
        <route edges="71716 -71716 -69694 -67364 -61951 -11203 -749 739 755 777 -813 -629 -477 479 817 20266 -19897 -18492 -12161 -10609 -10131 10133 14358 21089 22071 22989 33022 33304 34578 47545"/>
    </vehicle>
    <vehicle id="53" depart="53.00">
        <route edges="-8317 9876 11237 13792 14182 17222 19488 31514 32492 38131 59390 -61879 61881 64725 67318 59446 69677 72977 74946 77188 78748 111556"/>
    </vehicle>
    <vehicle id="54" depart="54.00">
        <route edges="-99619 -62960 62959 -61866 85377 -85370 -59351 -51093 -51090 -46517 -44849 -31432 -29878 -28594 12779 13538 19941 -19941 -13538"/>
    </vehicle>
    <vehicle id="55" depart="55.00">
        <route edges="-50760 -37654 -32088 -10592 -10125 -5452 -817 -479 475 -483 482 -468 -439 -368 -72 142"/>
    </vehicle>
    <vehicle id="56" depart="56.00">
        <route edges="-34645 34645 35992 -35967 35961 51090 51117 -52314 -50234 30712 30715"/>
    </vehicle>
    <vehicle id="57" depart="57.00">
        <route edges="34021 -32974 -25560 -22935 21059 -21077 -19901 -18492 -12161 -10609 -10131 10133 14951 15510 27004 28030 48999 58593"/>
    </vehicle>
    <vehicle id="58" depart="58.00">
        <route edges="99607 -96869 -94984 92703 -90550 90536 -59355 -55518 89563 -92247 -74811 -67286 64546"/>
    </vehicle>
    <vehicle id="59" depart="59.00">
        <route edges="58289 -58289 -50579 -48734 -47102 -19883 -12149 12145 12678 -12161 -11171 -9814 9816 9952 10136 10615 -10739 -6886 6884 29537 31165 -31964 31966 35486 43351"/>
    </vehicle>
    <vehicle id="60" depart="60.00">
        <route edges="-112564 88731 88733 -86838 -65878 -32059 -19889 -14936 -14348 -10592 -10125 -5452 -817 815 -3364 -3091 3095 3370 -3386 -940 936 1663 1787 8022 8577 16692 21113 -33942 75638 99573"/>
    </vehicle>
    <vehicle id="61" depart="61.00">
        <route edges="34021 -32974 -25560 -22935 21059 -21077 -19901 -18492 -12161 -11171 -9818 -6878 -6581 6731 7983 8415"/>
    </vehicle>
    <vehicle id="62" depart="62.00">
        <route edges="-11499 -9455 -8461 -7983 -6594 6586 -2969 -2760 -2426 -155 154 -265 -148 -55 57 368 439 467 493 620 745 771 1658 1787 8022 8577 16692 21113 -33942 38131 59390 100967 103866 -106723 -94870 94884"/>
    </vehicle>
    <vehicle id="63" depart="63.00">
        <route edges="-112991 -110519 -97962 -96121 -34580 -33304 -33022 -22989 -22071 -21089 -14358 -10133 10131 10609 12161 18492 19897 -20266 -817 -479 477 629 813 -777 -755 -739 749 11203 31434 32434 33475 34633 35983 69572 -69678 69677 72977 74946 77188 78748 111562 113756"/>
    </vehicle>
    <vehicle id="64" depart="64.00">
        <route edges="45083 46786 -39621 -38158 -11810 -11242 -10494 10490 6683 5024 20804 21308 46734 47859 53697 67463"/>
    </vehicle>
    <vehicle id="65" depart="65.00">
        <route edges="-112066 -92857 -90698 -73989 -72219 72211 73980 -62947 -60063 -41271 -25435 -10556 -7153 -6836 -6710 -2145 -1834 1838 -2149 -2015 -271 -154 -15 -3 7 29 273 455 633 812 -3364 9075 13540 13565 19951"/>
    </vehicle>
    <vehicle id="66" depart="66.00">
        <route edges="-107351 -91068 52258 -51086 51076 -42549 -37276 -32379 -31406 31394 -32367 -13534 -12779 -11203 -749 739 755 777 2931 3095 3368 -9844 10458 10936 11213 16211 47842 -48746 -55010 -52732 56356 58353 60552 63359 65925 68479 -68479 -65925"/>
    </vehicle>
    <vehicle id="67" depart="67.00">
        <route edges="-29420 29420 -30932 -34599 -31161 31157 35935 -14910 -14903 29248 -29540 -10104 -4832 -2282 4829 -5426 5438 8365 8826 11158 11346 21030 45513 -45513"/>
    </vehicle>
    <vehicle id="68" depart="68.00">
        <route edges="-103094 -97835 -93810 -91418 -91279 -86713 -58330 -25565 -24264 -22938 -19885 -14934 -14348 -10592 -10125 -5452 -817 815 -3364 -3091 3095 3370 -3386 -940 936 1663 1787 8022 8577 16692 21113 -33942 38131 59390 100967 103866 -106723 -96748 -94886 99188 101580 104348"/>
    </vehicle>
    <vehicle id="69" depart="69.00">
        <route edges="-102426 -99692 -35476 -14910 -14903 29248 -29540 -10104 -4832 -2282 4829 -5426 5438 8365 8834 20249 21048 21828 -51075 51076 -42549 -37276 106355 -103547 74806 -77046 -74687 -59218 -31390"/>
    </vehicle>
    <vehicle id="70" depart="70.00">
        <route edges="-60179 -57788 -55695 -54285 -51940 -50065 -39746 73869 95271 -95149 -77643 -75858 -70295 -67950 48173 -48144 -43632 50234 52314 -51117 -51090 -46517 -44849 -31432 -29878 -28594 -11203 -772 771 1658 1787 8040 8580 10057 16215 -14188 14196 -14583 46765 48089 53976"/>
    </vehicle>
    <vehicle id="71" depart="71.00">
        <route edges="20018 33954 -33803 -32983 -32068 32062 -30851 30849 37590 -37612 -32088 11438 12145 12678 -12161 -11171 -9814 9816 9952 10136 10613 19909 19912 20310 22082 23046 30932 32308 -33193 -32127 32117 -40451 40453 46037 -46037"/>
    </vehicle>
    <vehicle id="72" depart="72.00">
        <route edges="-95142 -48156 -43204 43164 -43632 50234 52314 -51117 -49241 103847 106506 108504 111381 113614"/>
    </vehicle>
    <vehicle id="73" depart="73.00">
        <route edges="77188 -77188 -74946 -72977 -69677 69678 -69572 -35983 35991 82706 85422 -101087 -100943 53123 61866 -62959 -60070 -51933 -48173 -33976 33978 36579 37502 38287 41281 43212 92859 95287 97222"/>
    </vehicle>
    <vehicle id="74" depart="74.00">
        <route edges="4035 -4064 -2941 -813 -629 -477 479 817 5452 10125 10592 11438 12149 19883 47102 48734 50580 68242 72407 74232 86593 88616 91098 93320"/>
    </vehicle>
    <vehicle id="75" depart="75.00">
        <route edges="-76880 76873 -32125 32127 33193 34576 -33338 -31161 -29537 -6884 -6880 -4840 -4465 -4243 6581 6878 22106 23069 -24292 -20266 -817 815 -3364 3366 4060 -4023 -3882 3872 -14198 6310 6318 13801 14201 46765 48073 -90261 90281"/>
    </vehicle>
    <vehicle id="76" depart="76.00">
        <route edges="67048 -67048 -58964 -27037 -25622 -24331 19030 19912 28056 38853 -56615 -55200 -25616 25616"/>
    </vehicle>
    <vehicle id="77" depart="77.00">
        <route edges="-16600 -15978 15434 15975 -5028 5024 20804 21308 46734 47971 -47971"/>
    </vehicle>
    <vehicle id="78" depart="78.00">
        <route edges="92850 -92847 -70334 -38281 -37502 37506 45208 -43220 -43149 -11938 -11263 -10568 9283 -9281 12243 12849 16010 -16010"/>
    </vehicle>
    <vehicle id="79" depart="79.00">
        <route edges="-11982 -9288 -7203 7153 10568 11263 11976 14246 20226 65472 -65472 -20226"/>
    </vehicle>
    <vehicle id="80" depart="80.00">
        <route edges="-67943 -48172 -43204 43164 -43632 50234 52314 -51117 -51090 -46517 -44849 -31432 -29878 -28594 -11203 7521 -19937 -19238 18647"/>
    </vehicle>
    <vehicle id="81" depart="81.00">
        <route edges="-25612 16163 -10603 10609 12161 18492 19897 -20266 -817 -479 477 629 813 -777 -755 -739 749 11203 12779 13534 32367 -31394 31406 32429 64546"/>
    </vehicle>
    <vehicle id="82" depart="82.00">
        <route edges="-100213 -97839 -96022 -93816 -91418 -91279 -86713 -58330 -25565 -24264 24270 25579 91292 93601 95968"/>
    </vehicle>
    <vehicle id="83" depart="83.00">
        <route edges="48063 -46802 -11816 11810 12832 13807 19502 20018 83131 86008 -75330 75330 -86008"/>
    </vehicle>
    <vehicle id="84" depart="84.00">
        <route edges="-4023 4023 -4060 -3366 3364 -812 -633 -455 -273 -29 -7 3 15 154 271 2015 2149 -1838 1834 2145"/>
    </vehicle>
    <vehicle id="85" depart="85.00">
        <route edges="-51274 51274 -53420 -39155 -33479 -32434 -31434 -11203 -749 -620 -493 -467 -439 -368 -57 55 148 265 -154 155 2426 2760 2969 4197 4248 6742 6884 29537 31161 33338 -34576 -33193 -32127 32117 -40451 40453 46037 47532 86918 106264"/>
    </vehicle>
    <vehicle id="86" depart="86.00">
        <route edges="-112859 42234 44397 -35868 35882 49052 50838 -34598 -33338 -31161 -29537 -6884 -6880 -4840 -4465 -4243 6581 6878 22106 23069 -24292 -20266 -817 815 -3364 3366 4060 -4023 -3882 3872 -14198 6310 6318 13801 14201 46765 48089 53976 55614 -27572"/>
    </vehicle>
    <vehicle id="87" depart="87.00">
        <route edges="-825 -389 439 467 495 622 755 783 934 2403 9084 10020"/>
    </vehicle>
    <vehicle id="88" depart="88.00">
        <route edges="-16199 -11213 -10936 -10458 9844 -3368 -3095 -2931 -777 -755 -739 749 11203 12779 13538 19941 22511 72895 87329"/>
    </vehicle>
    <vehicle id="89" depart="89.00">
        <route edges="-58496 -35758 -17430 17416 18196 33014 -37564 -37561 37562 42052 63292"/>
    </vehicle>
    <vehicle id="90" depart="90.00">
        <route edges="37305 -37305 -35987 -34633 -33475 -32434 -31434 -11203 -749 739 755 785 1997 2948 4127 4546 4900"/>
    </vehicle>
    <vehicle id="91" depart="91.00">
        <route edges="-9084 -2403 4169 4170 -1787 -1658 -771 772 11203 28594 29878 31432 44849 46517 51090 51117 -52314 -50234 43632 48144 -48173 67950 70295 75858 77647"/>
    </vehicle>
    <vehicle id="92" depart="92.00">
        <route edges="32059 -32059 32057 -31470 -11210 -10926 10936 11211 -14209 -5024 5777"/>
    </vehicle>
    <vehicle id="93" depart="93.00">
        <route edges="-104653 -102199 -99613 102200 -59355 85377 -85370 -59351 -51093 -51090 -46517 -44849 -31432 -29878 -28594 12779"/>
    </vehicle>
    <vehicle id="94" depart="94.00">
        <route edges="101580 -101580 -99188 94886 96748 106723 -103866 -100967 -59390 -38131 33942 -21113 -16692 -8577 -8022 -1787 -1658 -771 -745 -620 -493 -467 -439 -368 -57 55 148 265 -154 155 2426 2760 2969 4197 4248 6742 6886 13464 19037"/>
    </vehicle>
    <vehicle id="95" depart="95.00">
        <route edges="46802 57762 62838 -62465 62469 96795"/>
    </vehicle>
    <vehicle id="96" depart="96.00">
        <route edges="-94470 -92316 -87452 85377 -85370 -59351 -51093 -51090 -46517 -44849 -31432 -29878 -28594 -11203 -772 771 1658 1787 8040 8580 10057 16215 16466 16959 42893 49841"/>
    </vehicle>
    <vehicle id="97" depart="97.00">
        <route edges="-26422 -25192 -19983 19981 31502 -19484 19490 -19960 -10057 -8580 -8040 -1787 -1658 -771 -745 -620 -493 -467 -439 -368 -57 55 148 265 -154 155 2426 2760 2969 -6586 6632 10861"/>
    </vehicle>
    <vehicle id="98" depart="98.00">
        <route edges="-51031 -49210 -47721 -44798 -19933 -8040 -1787 -1658 -771 772 11203 28594 29878 31432 44849 46517 51090 51117 -52314 -50234 43632 -43164 43204 48156 86153 112027"/>
    </vehicle>
    <vehicle id="99" depart="99.00">
        <route edges="-63410 -60653 -56616 -55200 -25616 -24321 -23056 23046 30932 32308 -34553 34571 38830 40446"/>
    </vehicle>
    <vehicle id="100" depart="100.00">
        <route edges="102839 -93547 -91292 -25579 -24270 24264 25565 58330 86713 91279 91418 93816 96022 97839 -97971 -94024 -34578 34580 96121 -96108 96108"/>
    </vehicle>
    <vehicle id="101" depart="101.00">
        <route edges="-65418 -57788 -55695 -54285 -51940 -50065 -39746 73869 95271 -95149 -77643 -75858 -70295 -67950 48173 -48144 -43632 50234 52314 -51117 -51090 -46517 -44849 -31432 -29878 -28594 -11203 -772 771 1658 1787 8040 8580 10057 16215 16466 16913 -11237 11235 14146"/>
    </vehicle>
    <vehicle id="102" depart="102.00">
        <route edges="52722 -52722 -47116 -19883 -12149 -11438 -10592 -10125 -5452 -817 -479 475 -483 482 -468 -439 389 825 1140 -1140"/>
    </vehicle>
    <vehicle id="103" depart="103.00">
        <route edges="103376 -106001 -103288 -100542 -34571 34553 34576 34596 -31964 -29265 -27822 27828 39803 -41316 -38311 -37523 37524 -10556 10568 11263 11976 12904 14228 32830 33976 48173 51933 60070 -60070"/>
    </vehicle>
    <vehicle id="104" depart="104.00">
        <route edges="-86215 -83359 -70349 -67976 -43220 -41288 22892 22910 -12101 12091 -8826 -8365 -5438 -5178 -372 -324 320 -146 -55 -11 7 29 273 455 633 812 -3364 3366 -9844 -9724 5263 6768 15682 32459 43873 -45018 67385 69886 -71887"/>
    </vehicle>
    <vehicle id="105" depart="105.00">
        <route edges="-43046 -16618 -16611 -12849 -12243 -7137 7203 9288 11982 14255 14903 14910 -35935 -31157 -29537 -21093 55340 56891"/>
    </vehicle>
    <vehicle id="106" depart="106.00">
        <route edges="-22851 -21366 -20546 -19997 -14182 14188 -16215 -10057 -8580 -8040 -1787 -1658 -771 772 11203 12779 13534 32367 -31394 31406 32429 49227 51075 -21828 -21048 -20249 11160 11350 12095 12288 17377 38374 39917 41785"/>
    </vehicle>
    <vehicle id="107" depart="107.00">
        <route edges="49234 64548 -61951 -11203 -772 771 1658 1787 8040 8580 10057 16215 16466 16913 -11237 10484 -11028 10077 10080 10494 11242 11810 48126 49889 57753"/>
    </vehicle>
    <vehicle id="108" depart="108.00">
        <route edges="-298 -57 55 148 265 -154 155 2784 12761 22380 23065 31151 32344"/>
    </vehicle>
    <vehicle id="109" depart="109.00">
        <route edges="-15861 -15306 -14658 -14180 -11235 -9876 -7793 14198 -3872 3882 4023 -4060 -3366 3364 -815 817 20266 24292 -23069 -22106 -6878 -6581 4243 4465 4840 6880 6884 29537 31161 33338 34598 -50838 56646 58859 100580 112937"/>
    </vehicle>
    <vehicle id="110" depart="110.00">
        <route edges="12748 -12748 8567 -6719 -6574 -5180 -2015 -271 -154 -15 -3 7 29 273 455 633 812 -3364 3366 -9844 10458 10936 11213 16211 57536 59525 62217 82865"/>
    </vehicle>
    <vehicle id="111" depart="111.00">
        <route edges="-108206 108188 -91847 -91825 -56655 -55247 -52819 -37030 38844 40451 -32117 32157 35882 44411 49013 50811 74426 76872 -77804 -41310 41300 43314 45323 -86185 -83293 -72201 -70339 -57809 -50091"/>
    </vehicle>
    <vehicle id="112" depart="112.00">
        <route edges="-75815 -29041 -19640 -5056 5032 -5022 4023 4306 9706 9844"/>
    </vehicle>
    <vehicle id="113" depart="113.00">
        <route edges="43204 -43204 43164 -43632 50234 52314 -51117 -51090 -46517 -44849 -31432 -29878 -28594 -11203 -772 771 1658 1787 8040 8580 10057 19960 -19490 19488"/>
    </vehicle>
    <vehicle id="114" depart="114.00">
        <route edges="-92672 64932 38131 -37950 -37292 -35977 -34631 -33473 33475 34645 35992 -35967 35973 49241"/>
    </vehicle>
    <vehicle id="115" depart="115.00">
        <route edges="97835 -97835 -93810 -91418 -91279 -86713 -58330 37562 -30839 -25585 -24280 24284 52740 -55114 55130 -71889 71889"/>
    </vehicle>
    <vehicle id="116" depart="116.00">
        <route edges="-50272 -48428 -29344 -25497 -21038 21048 21828 -51075 -49227 -32429 -31406 31394 -32367 -13534 -12779 -11203 -772 771 1658 1787 8040 8580 10057 16215 -14188 14182 19997 20588 -21324"/>
    </vehicle>
    <vehicle id="117" depart="117.00">
        <route edges="55290 56772 58872 -40455 40451 -32117 32157 35882 44411 49013 50811 74426 76872 -77804 -41310 41300 43314 45323 -86185 -83293 -72201 -70339 60311 -60309 -46821"/>
    </vehicle>
    <vehicle id="118" depart="118.00">
        <route edges="-100078 -97675 -93655 -91292 -25579 25578 -19885 15498 19889 32057 -31470 -11210 -10926 10936 11211 -14209 -5024 5028 -15975 16480 19516 20052 21414"/>
    </vehicle>
    <vehicle id="119" depart="119.00">
        <route edges="-15752 -12821 -7789 6768 15682 32459 -32068 32062 -30851 30891 34193 102919"/>
    </vehicle>
    <vehicle id="120" depart="120.00">
        <route edges="-92287 92283 100936 103659 -71570 -31432 -29878 -28594 -11203 -749 739 755 777 -813 -629 -477 479 817 5452 10125 10592 14348 14934 19885 -25578 25579 -24276 24284 52748 55154"/>
    </vehicle>
    <vehicle id="121" depart="121.00">
        <route edges="-85390 -59435 59391 -77482 -75638 33942 -21113 -16692 -8577 -8022 -1787 -1658 -771 -745 -620 -493 -467 -439 390 -320 -304 2015 5180 12142 12572 43747"/>
    </vehicle>
    <vehicle id="122" depart="122.00">
        <route edges="-95692 -93152 -60367 60365 -10000 -2977 2969 -6586 6594 22174"/>
    </vehicle>
    <vehicle id="123" depart="123.00">
        <route edges="-63794 -61172 -58752 -52813 -50839 50838 -34598 -33338 -31161 -29537 -6884 -6880 -4840 -4465 -4243 6581 6878 22106 23069 -24292 -20266 -817 815 -3364 3366 -9844 -9724 5263 6768 15682 20510 21308 28723 33803 -33954 -20018 20016 35438 62725 67909 73716"/>
    </vehicle>
    <vehicle id="124" depart="124.00">
        <route edges="-54254 -16004 -5056 -4668 -1668 -940 934 2403 4308 10468 14548 16466 16959"/>
    </vehicle>
    <vehicle id="125" depart="125.00">
        <route edges="97847 100216 -97875 -93816 -91418 -91279 -86713 -58330 -25565 -24264 -22938 -19885 -14934 -14348 -10592 -10125 -5452 -817 815 -3364 -3091 3095 3370 -3386 -940 936 7738 8301 8951 9154 -9589"/>
    </vehicle>
    <vehicle id="126" depart="126.00">
        <route edges="-85957 -83087 -80727 -70034 -67784 -55642 -53976 -48089 -46765 -14146 -11235 -9876 8317 -10464 -10054 -9084 -2403 -934 -783 -755 -622 623 -39 40 -22 18 512"/>
    </vehicle>
    <vehicle id="127" depart="127.00">