<?xml version="1.0" encoding="UTF-8"?>

<!-- generated on Tue Dec 24 11:06:23 2019 by Eclipse SUMO duarouter Version 1.2.0
<configuration xmlns:xsi="http://www.w3.org/2001/XMLSchema-instance" xsi:noNamespaceSchemaLocation="http://sumo.dlr.de/xsd/duarouterConfiguration.xsd">

    <input>
        <net-file value="small_dublin.net.xml"/>
        <route-files value="trips.trips.xml"/>
    </input>

    <output>
        <output-file value="small_dublin_2.0.rou.xml"/>
        <alternatives-output value="small_dublin_2.0.rou.alt.xml"/>
    </output>

    <time>
        <begin value="0"/>
        <end value="3600"/>
    </time>

    <report>
        <no-warnings value="true"/>
        <ignore-errors value="true"/>
        <no-step-log value="true"/>
    </report>

</configuration>
-->

<routes xmlns:xsi="http://www.w3.org/2001/XMLSchema-instance" xsi:noNamespaceSchemaLocation="http://sumo.dlr.de/xsd/routes_file.xsd">
    <vehicle id="0" depart="0.00">
        <route edges="32665358#1 5976031#1 449366744 25553646 -369988978#4 -369988978#3 -369988978#1 -369988978#0 -129211783#0 -129211806#4 -129211806#3 -25536468 -191042863 -191042861 191042862#1 31992314#0 31992314#1 31992314#2 31992314#3 -317219091#4 -317219091#3 31992229#0 30999830#1 30999830#2 30999840#1 -30999840#1"/>
    </vehicle>
    <vehicle id="1" depart="2.00">
        <route edges="450023077#0 450023077#1 302527228#0 302527228#1 302527228#2 302527228#3 302527228#4 128569358#1 369988981#1 4915293 360313824#0 369977727#1 43870791#0 43870791#1 4078078#0 4078078#1 43321718#0 -43321718#0 43321719#0 43321719#1"/>
    </vehicle>
    <vehicle id="2" depart="4.00">
        <route edges="-317003246 -369622780 -52881222 143866298#0 750258565#1 143866314#1 143866317#0 143866317#1 143866317#3 143866317#4 -20848455#2 -20848455#1 -20848455#0 52881221 228818581 360313825#0 360313825#1 360313825#2 228818582 -52241898#0"/>
    </vehicle>
    <vehicle id="3" depart="6.00">
        <route edges="129211847#1 129211847#3 129211816#1 129211816#2 385558485#0 385558485#1 -317101094#13 -317101094#12 -317101094#10 -317101094#8 -317101094#7 -317101094#6 -317101094#5 -317101094#3 -317101094#2 -317101094#1 317101094#1"/>
    </vehicle>
    <vehicle id="4" depart="8.00">
        <route edges="-5976030 -227767347#1 -227767347#0 361585261#0 143866293#0 143866293#1 227767349#0 227767349#1 227767349#2 227767349#3 227767349#4 227767349#5 750258565#1 143866314#1 143866317#0 143866317#1 143866317#3 143866317#4 -20848455#2 -20848455#1 -20848455#0 52881221 228818581 360313825#0 360313825#1 360313825#2 369977729#0 369977729#1 302527226#0 302527226#1 317544589#1 317544589#2 228818579#1 228818579#2 228818579#4 228818579#5 710574992 4287294#0 4287294#1 4287294#3 4287294#9 4287294#11 -4934501#13 -4934501#12 -4934501#10 -4934501#9 -4934501#8 -4934501#7 -4934501#6 -4934501#5 -4934501#4 -4934501#3 -4934501#2 -4934501#1 -4934501#0 -44398171#0 6653000#0 6653000#1 30999741#1"/>
    </vehicle>
    <vehicle id="5" depart="10.00">
        <route edges="228279675 -228279675 -228279691#1 -30999830#1 -31992229#0 317219091#3 317219091#4 317219091#5 376465146#1 376465146#2 317544590#0 317544590#1 317544590#2 -125873172#16 -125873172#15 -125873172#14 -125873172#13 -125873172#9 -125873172#8 -125873172#6 -125873172#4 -125873172#3 -125873172#1 -563920582 -384312816#0 125880830#0 125880830#1 125880830#2 125880830#3 125880830#4 125880830#6 125880830#7 125880830#9 13894939#1 13894939#2 13894939#4 4628793 30795888"/>
    </vehicle>
    <vehicle id="6" depart="12.00">
        <route edges="317219091#2 317219091#3 317219091#4 317219091#5 376465146#1 376465146#2 317544590#0 317544590#1 317544590#2 376465147#0 376465147#1 376465147#2 7421646#0 7421646#2"/>
    </vehicle>
    <vehicle id="7" depart="14.00">
        <route edges="143866311#3 -129211815 -129211782#0 10564223#0 128570043#1 52881222 369622780 317003246 5976028#1 5976028#2 16247623 43538577#0 43538577#3 668344588 3791745#0 -3791745#0 -317003249#2 -317003249#1 317003249#0"/>
    </vehicle>
    <vehicle id="8" depart="16.00">
        <route edges="-4287294#9 -4287294#3 -4287294#1 -4287294#0 -710574992 -228818579#5 -228818579#4 -228818579#2 -228818579#1 5976031#0 5976031#1 449366744 25553646 317544588#0"/>
    </vehicle>
    <vehicle id="10" depart="20.00">
        <route edges="-376465162#1 -376465162#0 -369988985#2 -369988985#1 -369988985#0 -129211848#2 -129211848#0 128571079#0 128571079#1 228818590#0 228818590#1 228818581 360313825#0 360313825#1 360313825#2 369977729#0 369977729#1 302527226#0 302527226#1 317544589#1 317544589#2 228818579#1 228818579#2 228818579#4 228818579#5 710574992 4287294#0 4287294#1 4287294#3 4287294#9 4287294#11 -4934501#13 4934501#13 38668910#0 38668910#1 -218851685#2 218851685#2"/>
    </vehicle>
    <vehicle id="11" depart="22.00">
        <route edges="-51561196#1 -51561196#0 -26192220#0 -369214165#3 -369214165#2 -369214165#1 -369214165#0 -71423403#4 -71423403#2 -71423403#1 -71423403#0 -125873172#16 -125873172#15 -125873172#14 -125873172#13 -125873172#9 -125873172#8 -125873172#6 -125873172#4 -125873172#3 -125873172#1 125880419 129211806#4 129211783#0 129211783#1 369988978#1 32665358#0 32665358#1"/>
    </vehicle>
    <vehicle id="12" depart="24.00">
        <route edges="60067110 -317101094#12 -317101094#10 -317101094#8 -317101094#7 -317101094#6 -317101094#5 -317101094#3 -317101094#2 -317101094#1 -317101094#0 9189208#0 9189208#1 9189208#2 317219091#0 317219091#2 317219091#3 317219091#4 317219091#5 376465146#1 376465146#2 317544590#0 317544590#1 317544590#2 71423403#0 71423403#1 -71423403#1"/>
    </vehicle>
    <vehicle id="13" depart="26.00">
        <route edges="7919287#4 -7919287#4 -7919287#2 -7919287#1 -36819764 -33854575#1 -4315737 -228373543#6 -228373543#5 -228373543#4 -228373543#3 -228373543#2 -228373543#0 4629237 49974590 59416357#0 -13894939#4 -13894939#2 -13894939#1 -125880830#9 -125880830#7 -125880830#6 -125880830#5 -125880830#3 -125880830#2 -125880830#1 -125880830#0 384312816#0 384312816#1 125880419 129211806#4 129211783#0 129211783#1 369988978#1 369988978#3 31993269 -52241892 52241890#1 -52241890#1"/>
    </vehicle>
    <vehicle id="14" depart="28.00">
        <route edges="-54451008#0 -317219087 -20848446#3 -20848446#2 -20848446#1 20848447#0 20848447#2 20848447#3 128571079#0 -128571079#0 129211848#0 -127219363 -127219365#0"/>
    </vehicle>
    <vehicle id="15" depart="30.00">
        <route edges="52375081#1 372226873 10564223#0 750258565#1 143866314#1 143866317#0 143866317#1 143866317#3 143866317#4 -20848455#2 -20848455#1 -20848455#0 52881221 228818581 -4915293 -43034941#0 -128571079#1 -128571079#0 -20848447#3 -20848447#2 -20848447#0 -317101094#13 -317101094#12 -317101094#10 -317101094#8 -317101094#7 -317101094#6 -317101094#5 -317101094#3 -317101094#2 -317101094#1 -317101094#0 9189208#0 31992225#0 31992225#1 31992225#2"/>
    </vehicle>
    <vehicle id="16" depart="32.00">
        <route edges="-31992229#1 31992229#1 25536089#0 25536089#1 25536089#2 -25536089#2"/>
    </vehicle>
    <vehicle id="17" depart="34.00">
        <route edges="-52881220#2 52881220#2 52881220#3 430591268#0 430591268#1 430591268#2 430591268#3 129211824 317219094#0 317219094#1 317219094#2 317219094#3 317219094#4 317219094#5 362985327#0 362985327#1 362985327#2 362985327#3 376465157#0 376465157#1 376465157#2 362985328#1 9189208#0 9189208#1 9189208#2 317219091#0 317219091#2 -31992299#3 -31992299#2 -31992299#1 -31992299#0 32721801#0"/>
    </vehicle>
    <vehicle id="18" depart="36.00">
        <route edges="-22962977#1 -22962977#0 60010825#0 60010825#1 -43870791#1 -43870791#0 -369977727#1 -369977727#0 -4915293 -43034941#0 -128571079#1 -128571079#0 -20848447#3 -20848447#2 -20848447#0 -317101094#13 -317101094#12 -317101094#10 129211830#0 129211830#1 129211855"/>
    </vehicle>
    <vehicle id="19" depart="38.00">
        <route edges="317101094#3 317101094#5 317101094#6 317101094#7 317101094#8 317101094#10 317101094#11 317101094#13 20848447#0 20848447#2 20848447#3 128571079#0 128571079#1 228818590#0 228818590#1 228818581 360313825#0 360313825#1 360313825#2 369977729#0 369977729#1 302527226#0 302527226#1 317544589#1 317544589#2 228818579#1 228818579#2 228818579#4 228818579#5 710574992 125880830#0 125880830#1 125880830#2 125880830#3 125880830#4 125880830#6 125880830#7 125880830#9 13894939#1 13866343#0 13866343#2 317027065#4 317027065#5 -13873182"/>
    </vehicle>
    <vehicle id="20" depart="40.00">
        <route edges="13873188#2 13873188#3 13873188#4 -13873181#1 -13873181#0 -13873182 5976025#0 -13894939#4 -13894939#2 -13894939#1 -125880830#9 -125880830#7 -125880830#6 -125880830#5 -125880830#3 -125880830#2 -125880830#1 -125880830#0 384312816#0 384312816#1 125880419 129211806#4 129211783#0 129211783#1 369988978#1 369988978#3 31993269 -52241892 52241890#1 -52241890#1"/>
    </vehicle>
    <vehicle id="21" depart="42.00">
        <route edges="32758219#1 25761610#4 -25761629 130304206 129211833 -54451007#6 449556613#2 449556613#3 449556613#4"/>
    </vehicle>
    <vehicle id="22" depart="44.00">
        <route edges="143278854#0 6192171#0 6192171#1 143866317#0 143866317#1 143866317#3 143866317#4 -20848455#2 -20848455#1 -20848455#0 52881221 228818581 360313825#0 360313825#1 360313825#2 369977729#0 369977729#1 302527226#0 302527226#1 317544589#1 317544589#2 228818579#1 228818579#2 228818579#4 228818579#5 710574992 125880830#0 125880830#1 125880830#2 125880830#3 -13866325#6 -13866325#5 -13866325#3 26521206#1 -60521433#0 60521433#0"/>
    </vehicle>
    <vehicle id="23" depart="46.00">
        <route edges="-426154661#5 426154661#5 426154661#6 317101094#0 317101094#1 317101094#2 317101094#3 317101094#5 317101094#6 317101094#7 317101094#8 317101094#10 317101094#11 317101094#13 20848447#0 20848447#2 20848447#3 128571079#0 128571079#1 43034941#0 4915293 360313824#0 369977727#1 43870791#0 43870791#1 4078078#0 4078078#1 43321718#0 43321718#1 43321718#2 43321718#3 43321722 2294382#0 2294382#1 42636056 38192816 4629169#2 4629169#3 4629169#4 4629169#5 4629169#6 4629169#7 419502786#1 419502786#2 419502786#3 419502786#4 52879956 3792490#0 3792490#1 3792490#2"/>
    </vehicle>
    <vehicle id="24" depart="48.00">
        <route edges="137667338#2 -137667338#2 -137667338#1 -137667338#0 372460212#2 372460212#3 385558485#0 385558485#1 20848447#0 20848447#2 20848447#3 128571079#0 128571079#1 228818590#0 228818590#1 228818581 360313825#0 360313825#1 360313825#2 369977729#0 369977729#1 302527226#0 302527226#1 317544589#1 317544589#2 228818579#1 228818579#2 228818579#4 228818579#5 710574992 4287294#0 4287294#1 4287294#3 4287294#9 4287294#11 -4934501#13 -4934501#12 -4934501#10 -4934501#9 -4934501#8 -4934501#7 -4934501#6 -4934501#5 -4934501#4 -4934501#3 -4934501#2 -4934501#1 -4934501#0 -44398171#0 -36819763#3 -36819763#2 -36819763#1 -36819763#0 -4926209#1 33854575#1 36819764 7919287#1"/>
    </vehicle>
    <vehicle id="25" depart="50.00">
        <route edges="-32015967 -20848425#2 -20848425#0 52881219#0 52881219#2 52881219#3 52881219#5 52881219#6 52881220#0 52881220#1 52881220#2 52881220#3 56681847#0 56681847#2 56681847#3 56681847#4 372460213#0 372460213#1 372460213#3 372460213#4 372460213#5 372460213#7 372460213#8 20848454#2 372460210 227767349#0 227767349#1 227767349#2 227767349#3 227767349#4 227767349#5 750258565#1 143866314#1 143866317#0 143866317#1 143866317#3 143866317#4 -20848455#2 -20848455#1 -20848455#0 52881221 228818581 360313824#0 369977727#1 43870791#0 43870791#1 4078078#0 4078078#1 43321718#0 43321718#1 43321718#2 43321718#3 43321722 2294382#0 2294382#1 42636056 38192816 4629169#2 4629169#3 4629169#4 4629169#5 4629169#6 4629169#7 419502786#1 419502786#2 419502786#3 419502786#4 52879956 3792490#0 3792490#1 3792490#2 3792490#3 3792490#4 3792428 10577341#0 -10577341#0"/>
    </vehicle>
    <vehicle id="26" depart="52.00">
        <route edges="-22962976#0 -264876950#1 -264876950#0 372226878#0 372226878#1 4919471#0 4919471#1 4919471#2 24687121#0 24687121#1 24687121#2 24687121#3"/>
    </vehicle>
    <vehicle id="27" depart="54.00">
        <route edges="13866342#0 -13866342#0 317027065#5 13873181#0 13873181#1 4628799 -44398171#0 -36819763#3 -36819763#2 -36819763#1 -36819763#0 -4926209#1 -4315737 -228373543#6 -228373543#5 -228373543#4 228373543#4"/>
    </vehicle>
    <vehicle id="28" depart="56.00">
        <route edges="25731441 -25731441 -25731436#1 449556613#1 54451007#6 129211831 -129211855 -129211830#1 -129211830#0 317101094#10 317101094#11 317101094#13 20848447#0 20848447#2 20848447#3 128571079#0 128571079#1 43034941#0 228818584 -52881221 20848455#0 20848455#1 20848455#2 143866321 369977730#1 369977730#2 52375081#0 52375081#1 372226873 10564223#0 128570043#1 52881222 369622780 317003246 5976028#1 5976028#2 4919464 418991182"/>
    </vehicle>
    <vehicle id="29" depart="58.00">
        <route edges="129211837#2 372460212#0 372460212#2 372460212#3 385558485#0 385558485#1 20848447#0 20848447#2 20848447#3 128571079#0 128571079#1 43034941#0 4915293 360313824#0 369977727#1 43870791#0 43870791#1 4078078#0 4078078#1 43321718#0 43321718#1 43321718#2 43321718#3 43321722 2294382#0 2294382#1 42636056 38192816 4629169#2 4629169#3 4629169#4 4629169#5 4629169#6 4629169#7 419502786#1 419502786#2 419502786#3 419502786#4 52879956 3792490#0 3792490#1 3792490#2 3792490#3 3792490#4 -125872847#1 125872847#1"/>
    </vehicle>
    <vehicle id="30" depart="60.00">
        <route edges="-317101094#0 317101094#0 317101094#1 317101094#2 317101094#3 317101094#5 317101094#6 317101094#7 317101094#8 317101094#10 317101094#11 317101094#13 20848447#0 20848447#2 20848447#3 128571079#0 128571079#1 43034941#0 4915293 360313824#0 369977727#1 43870791#0 43870791#1 4078078#0 4078078#1 43321718#0 43321718#1 43321718#2 43321718#3 43321722 2294382#0 2294382#1 42636056 38192816 4629169#2 4629169#3 4629169#4 4629169#5 4629169#6 4629169#7 419502786#1 419502786#2 419502786#3 419502786#4 52879956 3792490#0 3792490#1 3792490#2 3792490#3 3792490#4 3792428 10577341#0"/>
    </vehicle>
    <vehicle id="31" depart="62.00">
        <route edges="-13872468#1 -13872468#0 -228373543#0 4629237 49974590 59416357#0 -13894939#4 -13894939#2 -13894939#1 -125880830#9 -125880830#7 -125880830#6 -125880830#5 -125880830#3 -125880830#2 -125880830#1 -125880830#0 384312816#0 384312816#1 125873172#1 125873172#3 125873172#4 125873172#5 125873172#8 125873172#9 125873172#13 125873172#14 125873172#15 125873172#16 -317544590#2 -317544590#1 -317544590#0 -376465146#2 -376465146#1 -376465146#0 -317219091#4 -317219091#3 -317219091#2 -317219091#0 -9189208#2 -31992225#2"/>
    </vehicle>
    <vehicle id="32" depart="64.00">
        <route edges="24776109#2 -24776109#2 -24776109#1 39523885#6 39523885#7 39523885#8 39523885#9 218851685#0 218851685#1 218851685#2 218851685#3 -38668910#0 -4934502#1 -4287294#9 -4287294#3 -4287294#1 -4287294#0 -710574992 -228818579#5 -228818579#4 -228818579#2 -228818579#1 5976031#0 5976031#1 5976031#3 128569359#1 302527228#0 302527228#1 302527228#2 302527228#3 302527228#4 128569358#1 369988981#1 228818584 -52881221 20848455#0 20848455#1 20848455#2 143866321 369977730#1 369977730#2 52375081#0 52375081#1 372226873 10564223#0 128570043#1 52881222 369622780 317003246 5976028#1 5976028#2 16247623 43538577#0 43538577#3 4401661#0 4401661#1"/>
    </vehicle>
    <vehicle id="33" depart="66.00">
        <route edges="-60067101 -60067109 60067109 60067101 426154661#6 317101094#0 317101094#1 317101094#2 317101094#3 317101094#5 317101094#6 317101094#7 317101094#8 317101094#10 317101094#11 317101094#13 20848447#0 20848447#2 20848447#3 128571079#0 128571079#1 43034941#0 228818584 -52881221 20848455#0 20848455#1 20848455#2 143866321 369977730#1 129211795 23395388#5 23395388#6"/>
    </vehicle>
    <vehicle id="34" depart="68.00">
        <route edges="52881219#2 52881219#3 52881219#5 52881219#6 52881220#0 52881220#1 52881220#2 52881220#3 56681847#0 56681847#2 56681847#3 56681847#4 372460213#0 372460213#1 372460213#3 372460213#4 372460213#5 372460213#7 372460213#8 20848454#2 372460210 227767349#0 227767349#1 227767349#2 227767349#3 227767349#4 227767349#5 750258565#1 143866314#1 143866317#0 143866317#1 143866317#3 143866317#4 -20848455#2 -20848455#1 -20848455#0 52881221 228818581 360313824#0 369977727#1 43870791#0 43870791#1 4078078#0 4078078#1 43321718#0 43321718#1 43321718#2 43321718#3 43321722 532427445#0 532427445#1 77616869#0 -77616869#0"/>
    </vehicle>
    <vehicle id="35" depart="70.00">
        <route edges="43538584 -3791745#3 -3791745#1 -3791745#0 -317003249#2 -317003249#1 -369564011#1 -369564011#0 -5826896#0 -554991019 -532427444#7 -532427444#6 -532427444#5 -532427444#4 -532427444#2 -532427444#1 -532427444#0 -341583777#1 -341583777#0 -5976022 532427445#0 532427445#1 77616869#0 77616869#2 4628792#0 4628792#1 4628792#2 75741007 4628790 59416359#0 59416359#1 59416359#2 631925364#3 -631925364#3"/>
    </vehicle>
    <vehicle id="36" depart="72.00">
        <route edges="-31992299#1 31992299#1 31992299#2 25731437 31992314#3 317219091#5 376465146#1 376465146#2 317544590#0 317544590#1 317544590#2 376465147#0 376465147#1 376465147#2 39523885#5 39523885#6 39523885#7 39523885#8 39523885#9 218851685#0 218851685#1 218851685#2 218851685#3 -38668910#0 -4934501#13 -4934501#12 -4934501#10 -4934501#9 -4934501#8 -4934501#7 -4934501#6 -4934501#5 -4934501#4 -4934501#3 -4934501#2 -4934501#1 -4934501#0 -44398171#0 -36819763#3 -36819763#2 -36819763#1 -36819763#0 -4926209#1 33854575#1 36819764 116689248#1 7919284#0 7919284#1 7919284#2 7919284#3 7919284#5 7919284#6 7919284#8 7919284#9"/>
    </vehicle>
    <vehicle id="37" depart="74.00">
        <route edges="4919489#1 -4919489#1 -4919489#0 4919487#0 4919487#1 4919615#4 2294383 38167515 24687584#0 4919535#1 24349650 16309917#0 16309917#1 16309917#2 -6192247#2 -6192247#0 750257166 750257168#1 143866317#3 143866317#4 -20848455#2 -20848455#1 -20848455#0 52881221 228818581 -4915293 -43034941#0 129211828#0 129211828#1 129211828#2 129211853 228705599 532098763"/>
    </vehicle>
    <vehicle id="38" depart="76.00">
        <route edges="-317027065#0 -13866265#1 -125880830#9 -125880830#7 -125880830#6 -125880830#5 -125880830#3 -125880830#2 -125880830#1 -125880830#0 384312816#0 384312816#1 125873172#1 125873172#3 125873172#4 128570462#0 32631726#0 -54451003#2 -54451003#1 -54451003#0 32631907 205036329#1 205036329#3 205036329#4 77499348#0 77499348#1"/>
    </vehicle>
    <vehicle id="39" depart="78.00">
        <route edges="304634278#0 4476043#0 4476041#0 4476041#1 532097269#1 52879957#1 -304634278#1 -3791745#5 -3791745#4 -3791745#3 -3791745#1 -3791745#0 -668344588 -43538577#3 -43538577#0 -16247623 -5976028#2 -5976028#1 -317003246 -369622780 -52881222 143866298#0 750258565#1 143866314#1 143866317#0 143866317#1 143866317#3 143866317#4 -20848455#2 -20848455#1 -20848455#0 52881221 228818581 -4915293 -43034941#0 -128571079#1 -128571079#0 -20848447#3 -20848447#2 -20848447#0 -20848446#0 -385558485#0 -129211816#2 -268965306#1"/>
    </vehicle>
    <vehicle id="40" depart="80.00">
        <route edges="-125873172#3 -125873172#1 -563920582 -384312816#0 -710574992 -228818579#5 -228818579#4 -228818579#2 -228818579#1 5976031#0 5976031#1 5976031#3 128569359#1 302527228#0 302527228#1 302527228#2 302527228#3 302527228#4 128569358#1 369988981#1 4915293 360313824#0 369977727#1 43870791#0 43870791#1 -60010825#1 -60010825#0 -369652829#4 -369652829#3 -369652829#2 -369652829#1 6192247#0 6192247#2 16309919 369652830 372226878#0 372226878#1"/>
    </vehicle>
    <vehicle id="41" depart="82.00">
        <route edges="128450677#0 128450677#1 128450677#2 128450677#3 52881220#0 52881220#1 52881220#2 52881220#3 430591268#0 430591268#1 430591268#2 430591268#3 129211824 129211837#1 129211837#2 372460212#0 -372460212#0"/>
    </vehicle>
    <vehicle id="42" depart="84.00">
        <route edges="-228818588#2 228818588#2 228818588#3 450023077#0 450023077#1 302527228#0 302527228#1 302527228#2 302527228#3 302527228#4 128569358#1 369988981#1 -43034941#0 -128571079#1 -128571079#0 129211848#0 129211848#2 372226881 369988985#1 369988985#2 376465162#0 129211840 129211857#1 129211857#2"/>
    </vehicle>
    <vehicle id="43" depart="86.00">
        <route edges="317027065#1 -317027065#1 -317027065#0 -13866265#1 -125880830#9 -125880830#7 -125880830#6 -125880830#5 -125880830#3 129211797#0 129211797#1 -129211797#1"/>
    </vehicle>
    <vehicle id="44" depart="88.00">
        <route edges="-31992222 -31992225#0 -9189208#0 317101094#0 317101094#1 317101094#2 317101094#3 317101094#5 317101094#6 317101094#7 317101094#8 317101094#10 -317101094#10"/>
    </vehicle>
    <vehicle id="47" depart="94.00">
        <route edges="129211818#2 48483331#0 20848454#2 372460210 227767349#0 227767349#1 227767349#2 227767349#3 227767349#4 227767349#5 750258565#1 129211842#0 129211842#1 143278854#0 360313823#0 360313823#1"/>
    </vehicle>
    <vehicle id="48" depart="96.00">
        <route edges="20848446#1 -20848446#1 20848447#0 20848447#2 20848447#3 128571079#0 128571079#1 43034941#0 4915293 360313824#0 369977727#1 43870791#0 43870791#1 4919469#0 4919469#1 4919469#2 4919469#3 4919469#4 369977725"/>
    </vehicle>
    <vehicle id="49" depart="98.00">
        <route edges="317544588#0 317544588#1 317544588#3 317219088 369988979 25761610#0 25761610#1 25761610#2 25761610#3 25761610#4 -25761629 130304206 129211833 129211831 -25536089#3 -25536089#2 -25536089#1 25536089#1"/>
    </vehicle>
    <vehicle id="50" depart="100.00">
        <route edges="-75450419#0 129211803#2 129211857#4 129211857#1 129211804#0 129211804#2 -372460212#0 -129211837#2 -129211837#1"/>
    </vehicle>
    <vehicle id="51" depart="102.00">
        <route edges="44409757 -44409757 -7919284#1 -7919284#0 -116689248#2 -36819764 -33854575#1 -4315737 -228373543#6 -228373543#5 -228373543#4 -228373543#3 -228373543#2 -228373543#0 4629237 49974590 59416357#0 -13894939#4 -13894939#2 -13894939#1 -125880830#9 -125880830#7 -125880830#6 -125880830#5 -125880830#3 -125880830#2 -125880830#1 -125880830#0 384312816#0 -384312816#0 -710574992 -228818579#5 -228818579#4 -228818579#2 -228818579#1 5976031#0 5976031#1 5976031#3 128569359#1 302527228#0 302527228#1 302527228#2 302527228#3 302527228#4 128569358#1 369988981#1 228818584 -52881221 20848455#0 20848455#1 20848455#2 143866321 369977730#1 369977730#2 52375081#0 52375081#1 372226873 10564223#0 360313821 375778083 375778088#0 375778088#1 143866305#0 143866305#1 -372460213#8 -372460213#7 -372460213#5 -372460213#4 -372460213#3 -372460213#1 -372460213#0 -56681847#4 -56681847#3 -56681847#2 -56681847#1 430591268#0 430591268#1 430591268#2 27217683#0 27217683#1 38090685#0"/>
    </vehicle>
    <vehicle id="52" depart="104.00">
        <route edges="-54451008#3 54451008#3 129211783#0 129211783#1 369988978#1 32665358#0 32665358#1 5976031#1 5976031#3 128569359#1 302527228#0 302527228#1 302527228#2 302527228#3 302527228#4 128569358#1 369988981#1 228818584 -52881221 20848455#0 20848455#1 20848455#2 143866321 369977730#1 369977730#2 52375081#0 52375081#1 372226873 10564223#0 750258565#1 143866314#1 143866317#0 143866317#1 143866317#3"/>
    </vehicle>
    <vehicle id="53" depart="106.00">
        <route edges="-27217681#4 27217681#4 430591268#2 27217683#0 27217683#1 27217683#2 27217683#3 372460211#3 372460213#0 372460213#1 372460213#3 372460213#4 372460213#5 372460213#7 372460213#8 133909794#1 133909794#2 129211785#2 227767347#0 227767347#1 -129211789#4 49998962#0"/>
    </vehicle>
    <vehicle id="54" depart="108.00">
        <route edges="40641511 128570949#0 128570949#1 -227767347#1 -227767347#0 361585261#0 143866293#0 143866293#1 227767349#0 227767349#1 227767349#2 227767349#3 227767349#4 227767349#5 750258565#1 143866314#1 143866317#0 143866317#1 143866317#3 143866317#4 -20848455#2 -20848455#1 -20848455#0 52881221 228818581 360313825#0"/>
    </vehicle>
    <vehicle id="55" depart="110.00">
        <route edges="4287348#0 -525228766#5 -525228766#4 -525228766#3 -525228766#2 -525228766#1 -525228766#0 4628794#0 4628794#1 4628794#2 398224850#1 22979006#0 22979006#1 22979006#2 49974590 59416357#0 -13894939#4 -13894939#2 -13894939#1 -125880830#9 -125880830#7 -125880830#6 -125880830#5 -125880830#3 -125880830#2 -125880830#1 -125880830#0 384312816#0 -384312816#0 -710574992 -228818579#5 -228818579#4 -228818579#2 -228818579#1 5976031#0 5976031#1 5976031#3 128569359#1 302527228#0 302527228#1 302527228#2 302527228#3 302527228#4 128569358#1 369988981#1 -43034941#0 -128571079#1 -128571079#0 129211848#0 129211848#2 372226881 369988985#1 369988985#2 376465162#0 129211840 129211857#1 129211804#0 75450415#0 -495995815"/>
    </vehicle>
    <vehicle id="56" depart="112.00">
        <route edges="-14039614 14039611#1 14039609#2 14039609#3 317003251#0 317003251#1 4078079#1 38192817 42636055#0 -43321722 -43321718#3 -43321718#2 -43321718#1 43321718#1"/>
    </vehicle>
    <vehicle id="57" depart="114.00">
        <route edges="13872815#1 -13872815#1 -525228766#0 4628794#0 4628794#1 4628794#2 398224850#1 22979006#0 22979006#1 22979006#2 49974590 59416357#0 -13894939#4 -13894939#2 -13894939#1 -125880830#9 -125880830#7 -125880830#6 -125880830#5 -125880830#3 -125880830#2 -125880830#1 -125880830#0 384312816#0 -384312816#0 -710574992 -228818579#5 -228818579#4 -228818579#2"/>
    </vehicle>
    <vehicle id="58" depart="116.00">
        <route edges="129211816#2 -376465162#1 -376465162#0 129211827#0 129211827#1 129211827#2 129211827#3 372460211#0 372460211#1 372460211#2 372460211#3 -56681847#4 -56681847#3 -56681847#2 -56681847#1 128570947 430591274#1 -430591274#1"/>
    </vehicle>
    <vehicle id="59" depart="118.00">
        <route edges="128570949#1 -227767347#1 -227767347#0 361585261#0 143866293#0 143866293#1 227767349#0 227767349#1 227767349#2 227767349#3 227767349#4 227767349#5 128570043#1 52881222 369622780 317003246 5976028#1 5976028#2 16247623 43538577#0 43538577#3 668344588 3791745#0 -3791745#0 -317003249#2 -317003249#1 4919459#0"/>
    </vehicle>
    <vehicle id="60" depart="120.00">
        <route edges="228373557#0 228373557#1 -13866343#0 -13894939#1 -125880830#9 -125880830#7 -125880830#6 -125880830#5 -125880830#3 -125880830#2 -125880830#1 -125880830#0 4287294#0 4287294#1 4287294#3 4287294#9 -4287294#9"/>
    </vehicle>
    <vehicle id="61" depart="122.00">
        <route edges="-6653000#1 -6653000#0 44398171#0 -13866426 -13873181#1 -13873181#0 -13873182 5976025#0 -13894939#4 -13894939#2 -13894939#1 -125880830#9 -125880830#7 -125880830#6 -125880830#5 -125880830#3 -125880830#2 -125880830#1 -125880830#0 384312816#0 384312816#1 125880419 129211806#4 129211783#0 129211783#1 369988978#1 369988978#3 31993269 -52241892 -52241890#0"/>
    </vehicle>
    <vehicle id="62" depart="124.00">
        <route edges="-3791745#1 -3791745#0 -317003249#2 -317003249#1 -369564011#1 -369564011#0 -5826896#0 -554991019 -532427444#7 -532427444#6 -532427444#5 -532427444#4 -532427444#2 -532427444#1 -532427444#0 -341583777#1 -341583777#0 -5976022 532427445#0 532427445#1 77616869#0 77616869#2 4628792#0 4628792#1 4628792#2 75741007 4628790 59416359#0 59416359#1 59416359#2 4628791#1 4628791#2 49974590 5976027#0 13873182 13873181#0 13873181#1 4628799 -44398171#0 6653000#0 6653000#1 6653000#2 6653000#3 -44402154#1 -44402154#0"/>
    </vehicle>
    <vehicle id="63" depart="126.00">
        <route edges="317219091#3 317219091#4 317219091#5 376465146#1 376465146#2 317544590#0 317544590#1 317544590#2 376465147#0 376465147#1 376465147#2 39523885#5 24776109#1"/>
    </vehicle>
    <vehicle id="64" depart="128.00">
        <route edges="-25536089#0 317219091#0 317219091#2 317219091#3 317219091#4 317219091#5 376465146#1 376465146#2 317544590#0 317544590#1 317544590#2 376465147#0 376465147#1 376465147#2 39523885#5 39523885#6 39523885#7 39523885#8 39523885#9 218851685#0 218851685#1 218851685#2 218851685#3 -38668910#0 -4934501#13 -4934501#12 -4934501#10 -4934501#9 -4934501#8 -4934501#7 -4934501#6 -4934501#5 -4934501#4 -4934501#3 -4934501#2 -4934501#1 -4934501#0 -44398171#0 6653000#0 6653000#1 6653000#2 6653000#3 6653000#4 32631306#0 32631389#3 44398142#0 44398142#1 -44398141#1"/>
    </vehicle>
    <vehicle id="65" depart="130.00">
        <route edges="-13866376#3 -13866376#2 4074526#4 317003251#0 317003251#1 4078079#1 38192817 42636055#0 -43321722 -43321718#3 -43321718#2 -43321718#1 -43321718#0 -4078078#1 -4078078#0 -43870791#1 -43870791#0 -369977727#1 -369977727#0 -4915293 -43034941#0 -128571079#1 -128571079#0 129211848#0 129211848#2 372226881 -369988985#0"/>
    </vehicle>
    <vehicle id="66" depart="132.00">
        <route edges="24776574#0 22999125#4 -7421646#2 -7421646#0 -13866422 -376465147#1 -376465147#0 -317544590#2 -317544590#1 -317544590#0 -376465146#2 -376465146#1 -376465146#0 -317219091#4 -317219091#3 -317219091#2"/>
    </vehicle>
    <vehicle id="67" depart="134.00">
        <route edges="44115853#1 44115853#2 372460211#2 372460211#3 372460213#0 372460213#1 372460213#3 372460213#4 372460213#5 372460213#7 372460213#8 20848454#2 372460210 227767349#0 227767349#1 227767349#2 227767349#3 227767349#4 227767349#5 750258565#1 143866314#1 143866317#0 143866317#1 143866317#3 143866317#4 -20848455#2 -20848455#1 -20848455#0 52881221 228818581 360313825#0 360313825#1 360313825#2 369977729#0 369977729#1 302527226#0 302527226#1 317544589#1 317544589#2 228818579#1 228818579#2 228818579#4 228818579#5 710574992 384312816#0 384312816#1 125873172#1 125873172#3 125873172#4 125873172#5 125873172#8 125873172#9 125873172#13 125873172#14 125873172#15 125873172#16 71423403#0"/>
    </vehicle>
    <vehicle id="68" depart="136.00">
        <route edges="-532427445#1 -532427445#0 -43321722 -43321718#3 -43321718#2 -43321718#1 -43321718#0 -4078078#1 -4078078#0 -43870791#1 -43870791#0 -369977727#1 -369977727#0 -4915293 -43034941#0 -128571079#1 -128571079#0 -20848447#3 -20848447#2 -20848447#0 -317101094#13 -317101094#12 -317101094#10 -317101094#8 -317101094#7 -317101094#6 -317101094#5 -317101094#3 -317101094#2 -317101094#1 -317101094#0 -426154661#6 -426154661#5"/>
    </vehicle>
    <vehicle id="69" depart="138.00">