<?xml version="1.0" encoding="UTF-8"?>

<!-- generated on Mon Dec  9 16:06:17 2019 by Eclipse SUMO netgenerate Version 1.2.0
<configuration xmlns:xsi="http://www.w3.org/2001/XMLSchema-instance" xsi:noNamespaceSchemaLocation="http://sumo.dlr.de/xsd/netgenerateConfiguration.xsd">

    <random_network>
        <rand value="true"/>
        <rand.iterations value="200"/>
        <rand.max-distance value="1000"/>
    </random_network>

    <output>
        <output-file value="rand_200.net.xml"/>
    </output>

</configuration>
-->

<net version="1.1" junctionCornerDetail="5" limitTurnSpeed="5.50" xmlns:xsi="http://www.w3.org/2001/XMLSchema-instance" xsi:noNamespaceSchemaLocation="http://sumo.dlr.de/xsd/net_file.xsd">

    <location netOffset="2727.60,4570.97" convBoundary="0.00,0.00,5928.74,11767.37" origBoundary="-2727.60,-4570.97,3201.14,7196.40" projParameter="!"/>

    <edge id=":1_0" function="internal">
        <lane id=":1_0_0" index="0" speed="5.98" length="9.08" shape="2726.13,4579.26 2725.72,4576.69 2724.59,4575.12 2722.74,4574.54 2720.17,4574.95"/>
    </edge>
    <edge id=":1_1" function="internal">
        <lane id=":1_1_0" index="0" speed="13.89" length="14.86" shape="2726.13,4579.26 2725.99,4575.54 2725.68,4571.85 2725.16,4568.19 2724.41,4564.54"/>
    </edge>
    <edge id=":1_2" function="internal">
        <lane id=":1_2_0" index="0" speed="8.09" length="6.00" shape="2726.13,4579.26 2726.63,4574.93 2727.41,4573.49"/>
    </edge>
    <edge id=":1_3" function="internal">
        <lane id=":1_3_0" index="0" speed="3.65" length="2.34" shape="2726.13,4579.26 2726.91,4578.05 2727.71,4577.64"/>
    </edge>
    <edge id=":1_16" function="internal">
        <lane id=":1_16_0" index="0" speed="8.09" length="9.12" shape="2727.41,4573.49 2728.28,4571.88 2731.08,4570.12 2735.03,4569.65"/>
    </edge>
    <edge id=":1_17" function="internal">
        <lane id=":1_17_0" index="0" speed="3.65" length="2.34" shape="2727.71,4577.64 2728.51,4578.03 2729.33,4579.21"/>
    </edge>
    <edge id=":1_4" function="internal">
        <lane id=":1_4_0" index="0" speed="6.62" length="9.76" shape="2734.91,4572.85 2732.43,4573.16 2730.67,4574.33 2729.64,4576.35 2729.33,4579.21"/>
    </edge>
    <edge id=":1_5" function="internal">
        <lane id=":1_5_0" index="0" speed="13.89" length="14.95" shape="2734.91,4572.85 2731.17,4572.89 2727.46,4573.27 2723.79,4573.97 2720.17,4574.95"/>
    </edge>
    <edge id=":1_6" function="internal">
        <lane id=":1_6_0" index="0" speed="9.03" length="14.51" shape="2734.91,4572.85 2731.04,4572.20 2727.99,4570.61 2725.79,4568.05 2724.41,4564.54"/>
    </edge>
    <edge id=":1_7" function="internal">
        <lane id=":1_7_0" index="0" speed="3.65" length="4.67" shape="2734.91,4572.85 2733.74,4572.00 2733.37,4571.19 2733.80,4570.40 2735.03,4569.65"/>
    </edge>
    <edge id=":1_8" function="internal">
        <lane id=":1_8_0" index="0" speed="7.70" length="10.32" shape="2727.52,4563.79 2728.50,4566.27 2730.08,4568.07 2732.25,4569.19 2735.03,4569.65"/>
    </edge>
    <edge id=":1_9" function="internal">
        <lane id=":1_9_0" index="0" speed="13.89" length="15.56" shape="2727.52,4563.79 2728.29,4567.55 2728.83,4571.45 2729.18,4575.38 2729.33,4579.21"/>
    </edge>
    <edge id=":1_10" function="internal">
        <lane id=":1_10_0" index="0" speed="8.41" length="6.16" shape="2727.52,4563.79 2727.81,4567.59 2727.01,4569.80"/>
    </edge>
    <edge id=":1_11" function="internal">
        <lane id=":1_11_0" index="0" speed="3.65" length="2.34" shape="2727.52,4563.79 2727.02,4565.14 2726.34,4565.72"/>
    </edge>
    <edge id=":1_18" function="internal">
        <lane id=":1_18_0" index="0" speed="8.41" length="8.84" shape="2727.01,4569.80 2726.68,4570.71 2724.13,4573.16 2720.17,4574.95"/>
    </edge>
    <edge id=":1_19" function="internal">
        <lane id=":1_19_0" index="0" speed="3.65" length="2.34" shape="2726.34,4565.72 2725.47,4565.52 2724.41,4564.54"/>
    </edge>
    <edge id=":1_12" function="internal">
        <lane id=":1_12_0" index="0" speed="7.00" length="10.09" shape="2719.23,4571.89 2721.98,4570.68 2723.76,4569.05 2724.57,4567.00 2724.41,4564.54"/>
    </edge>
    <edge id=":1_13" function="internal">
        <lane id=":1_13_0" index="0" speed="13.89" length="16.03" shape="2719.23,4571.89 2723.01,4570.89 2727.05,4570.14 2731.13,4569.71 2735.03,4569.65"/>
    </edge>
    <edge id=":1_14" function="internal">
        <lane id=":1_14_0" index="0" speed="7.59" length="15.41" shape="2719.23,4571.89 2723.58,4571.19 2726.72,4572.18 2728.64,4574.85 2729.33,4579.21"/>
    </edge>
    <edge id=":1_15" function="internal">
        <lane id=":1_15_0" index="0" speed="3.65" length="4.67" shape="2719.23,4571.89 2720.61,4572.30 2721.23,4572.95 2721.08,4573.83 2720.17,4574.95"/>
    </edge>
    <edge id=":10_0" function="internal">
        <lane id=":10_0_0" index="0" speed="13.89" length="19.35" shape="2232.56,4736.63 2228.48,4717.72"/>
    </edge>
    <edge id=":10_1" function="internal">
        <lane id=":10_1_0" index="0" speed="9.90" length="7.89" shape="2232.56,4736.63 2231.97,4730.81 2232.52,4728.85"/>
    </edge>
    <edge id=":10_2" function="internal">
        <lane id=":10_2_0" index="0" speed="7.42" length="7.96" shape="2232.56,4736.63 2231.81,4730.56 2232.52,4728.87"/>
    </edge>
    <edge id=":10_3" function="internal">
        <lane id=":10_3_0" index="0" speed="3.65" length="2.34" shape="2232.56,4736.63 2233.06,4735.28 2233.74,4734.70"/>
    </edge>
    <edge id=":10_16" function="internal">
        <lane id=":10_16_0" index="0" speed="9.90" length="13.27" shape="2232.52,4728.85 2233.28,4726.12 2236.48,4722.55 2241.57,4720.11"/>
    </edge>
    <edge id=":10_17" function="internal">
        <lane id=":10_17_0" index="0" speed="7.42" length="11.24" shape="2232.52,4728.87 2233.16,4727.35 2236.62,4727.02 2242.19,4729.56"/>
    </edge>
    <edge id=":10_18" function="internal">
        <lane id=":10_18_0" index="0" speed="3.65" length="2.34" shape="2233.74,4734.70 2234.62,4734.90 2235.68,4735.88"/>
    </edge>
    <edge id=":10_4" function="internal">
        <lane id=":10_4_0" index="0" speed="5.48" length="9.71" shape="2240.55,4732.31 2237.73,4731.02 2235.98,4731.19 2235.29,4732.81 2235.68,4735.88"/>
    </edge>
    <edge id=":10_5" function="internal">
        <lane id=":10_5_0" index="0" speed="13.62" length="19.49" shape="2240.55,4732.31 2235.82,4729.01 2232.23,4725.48 2229.78,4721.72 2228.48,4717.72"/>
    </edge>
    <edge id=":10_6" function="internal">
        <lane id=":10_6_0" index="0" speed="7.45" length="18.94" shape="2240.55,4732.31 2235.72,4728.61 2234.28,4725.34 2236.23,4722.51 2241.57,4720.11"/>
    </edge>
    <edge id=":10_7" function="internal">
        <lane id=":10_7_0" index="0" speed="3.65" length="4.67" shape="2240.55,4732.31 2239.93,4731.00 2240.00,4730.11 2240.75,4729.63 2242.19,4729.56"/>
    </edge>
    <edge id=":10_8" function="internal">
        <lane id=":10_8_0" index="0" speed="5.58" length="9.89" shape="2242.52,4723.17 2239.79,4724.41 2238.82,4725.89 2239.62,4727.61 2242.19,4729.56"/>
    </edge>
    <edge id=":10_9" function="internal">
        <lane id=":10_9_0" index="0" speed="8.73" length="16.24" shape="2242.52,4723.17 2238.64,4725.04 2236.20,4727.78 2235.21,4731.39 2235.68,4735.88"/>
    </edge>
    <edge id=":10_10" function="internal">
        <lane id=":10_10_0" index="0" speed="8.47" length="17.53" shape="2242.52,4723.17 2237.00,4724.27 2232.82,4723.73 2229.98,4721.55 2228.48,4717.72"/>
    </edge>
    <edge id=":10_11" function="internal">
        <lane id=":10_11_0" index="0" speed="3.65" length="4.67" shape="2242.52,4723.17 2241.14,4722.76 2240.52,4722.12 2240.66,4721.23 2241.57,4720.11"/>
    </edge>
    <edge id=":10_12" function="internal">
        <lane id=":10_12_0" index="0" speed="7.09" length="11.94" shape="2231.63,4717.16 2232.63,4719.49 2234.63,4720.76 2237.60,4720.97 2241.57,4720.11"/>
    </edge>
    <edge id=":10_13" function="internal">
        <lane id=":10_13_0" index="0" speed="12.66" length="16.76" shape="2231.63,4717.16 2232.74,4720.48 2234.88,4723.66 2238.03,4726.68 2242.19,4729.56"/>
    </edge>
    <edge id=":10_14" function="internal">
        <lane id=":10_14_0" index="0" speed="13.89" length="19.15" shape="2231.63,4717.16 2235.68,4735.88"/>
    </edge>
    <edge id=":10_15" function="internal">
        <lane id=":10_15_0" index="0" speed="3.65" length="2.34" shape="2231.63,4717.16 2231.05,4718.48 2230.34,4719.02"/>
    </edge>
    <edge id=":10_19" function="internal">
        <lane id=":10_19_0" index="0" speed="3.65" length="2.34" shape="2230.34,4719.02 2229.48,4718.76 2228.48,4717.72"/>
    </edge>
    <edge id=":1000_0" function="internal">
        <lane id=":1000_0_0" index="0" speed="6.24" length="11.84" shape="2797.12,4296.32 2794.11,4298.29 2791.79,4298.44 2790.17,4296.78 2789.24,4293.31"/>
    </edge>
    <edge id=":1000_1" function="internal">
        <lane id=":1000_1_0" index="0" speed="3.99" length="3.95" shape="2792.41,4292.88 2792.72,4294.04 2793.26,4294.60 2794.03,4294.54 2795.04,4293.89"/>
    </edge>
    <edge id=":1119_0" function="internal">
        <lane id=":1119_0_0" index="0" speed="6.30" length="5.05" shape="1971.82,5680.44 1970.52,5680.54 1969.32,5680.32 1968.24,5679.77 1967.27,5678.89"/>
    </edge>
    <edge id=":1119_1" function="internal">
        <lane id=":1119_1_0" index="0" speed="4.02" length="1.68" shape="1969.68,5676.78 1970.01,5677.07 1970.37,5677.26 1970.77,5677.33 1971.20,5677.30"/>
    </edge>
    <edge id=":1123_0" function="internal">
        <lane id=":1123_0_0" index="0" speed="6.14" length="6.36" shape="2197.79,5852.01 2196.13,5851.73 2194.82,5851.02 2193.87,5849.87 2193.28,5848.29"/>
    </edge>
    <edge id=":1123_1" function="internal">
        <lane id=":1123_1_0" index="0" speed="3.94" length="2.12" shape="2196.40,5847.57 2196.59,5848.10 2196.91,5848.48 2197.35,5848.72 2197.90,5848.81"/>
    </edge>
    <edge id=":1139_0" function="internal">
        <lane id=":1139_0_0" index="0" speed="6.75" length="11.55" shape="2027.17,5455.05 2024.77,5451.93 2022.46,5450.32 2020.22,5450.21 2018.08,5451.62"/>
    </edge>
    <edge id=":1139_1" function="internal">
        <lane id=":1139_1_0" index="0" speed="10.06" length="20.84" shape="2027.17,5455.05 2024.83,5449.89 2024.53,5445.09 2026.27,5440.63 2030.05,5436.52"/>
    </edge>
    <edge id=":1139_2" function="internal">
        <lane id=":1139_2_0" index="0" speed="7.40" length="18.67" shape="2027.17,5455.05 2024.63,5449.74 2024.90,5446.30 2027.97,5444.74 2033.85,5445.05"/>
    </edge>
    <edge id=":1139_3" function="internal">
        <lane id=":1139_3_0" index="0" speed="3.65" length="4.67" shape="2027.17,5455.05 2027.21,5453.61 2027.67,5452.84 2028.56,5452.75 2029.88,5453.34"/>
    </edge>
    <edge id=":1139_4" function="internal">
        <lane id=":1139_4_0" index="0" speed="5.50" length="9.59" shape="2033.31,5448.20 2030.29,5448.04 2028.71,5448.85 2028.57,5450.61 2029.88,5453.34"/>
    </edge>
    <edge id=":1139_5" function="internal">
        <lane id=":1139_5_0" index="0" speed="11.44" length="16.23" shape="2033.31,5448.20 2028.54,5447.76 2024.41,5448.18 2020.92,5449.47 2018.08,5451.62"/>
    </edge>
    <edge id=":1139_6" function="internal">
        <lane id=":1139_6_0" index="0" speed="7.41" length="18.57" shape="2033.31,5448.20 2027.68,5446.54 2025.26,5444.04 2026.05,5440.70 2030.05,5436.52"/>
    </edge>
    <edge id=":1139_7" function="internal">
        <lane id=":1139_7_0" index="0" speed="3.65" length="4.67" shape="2033.31,5448.20 2032.26,5447.21 2032.00,5446.36 2032.53,5445.64 2033.85,5445.05"/>
    </edge>
    <edge id=":1139_8" function="internal">
        <lane id=":1139_8_0" index="0" speed="5.54" length="9.66" shape="2032.08,5438.99 2030.02,5441.16 2029.62,5442.89 2030.90,5444.18 2033.85,5445.05"/>
    </edge>
    <edge id=":1139_9" function="internal">
        <lane id=":1139_9_0" index="0" speed="8.91" length="16.14" shape="2032.08,5438.99 2029.16,5442.17 2027.82,5445.62 2028.06,5449.35 2029.88,5453.34"/>
    </edge>
    <edge id=":1139_10" function="internal">
        <lane id=":1139_10_0" index="0" speed="13.89" length="18.86" shape="2032.08,5438.99 2028.75,5441.80 2024.94,5445.15 2021.19,5448.58 2018.08,5451.62"/>
    </edge>
    <edge id=":1139_11" function="internal">
        <lane id=":1139_11_0" index="0" speed="3.65" length="2.34" shape="2032.08,5438.99 2030.65,5439.14 2029.83,5438.77"/>
    </edge>
    <edge id=":1139_16" function="internal">
        <lane id=":1139_16_0" index="0" speed="3.65" length="2.34" shape="2029.83,5438.77 2029.63,5437.90 2030.05,5436.52"/>
    </edge>
    <edge id=":1139_12" function="internal">
        <lane id=":1139_12_0" index="0" speed="13.89" length="19.21" shape="2015.79,5449.38 2018.95,5446.31 2022.78,5442.80 2026.68,5439.36 2030.05,5436.52"/>
    </edge>
    <edge id=":1139_13" function="internal">
        <lane id=":1139_13_0" index="0" speed="12.45" length="7.34" shape="2015.79,5449.38 2019.25,5446.72 2022.03,5445.65"/>
    </edge>
    <edge id=":1139_14" function="internal">
        <lane id=":1139_14_0" index="0" speed="8.19" length="5.69" shape="2015.79,5449.38 2019.31,5446.92 2020.70,5446.86"/>
    </edge>
    <edge id=":1139_15" function="internal">
        <lane id=":1139_15_0" index="0" speed="3.65" length="2.34" shape="2015.79,5449.38 2017.20,5449.08 2018.05,5449.35"/>
    </edge>
    <edge id=":1139_17" function="internal">
        <lane id=":1139_17_0" index="0" speed="12.45" length="11.98" shape="2022.03,5445.65 2023.41,5445.12 2028.28,5444.56 2033.85,5445.05"/>
    </edge>
    <edge id=":1139_18" function="internal">
        <lane id=":1139_18_0" index="0" speed="8.19" length="11.92" shape="2020.70,5446.86 2022.83,5446.76 2026.35,5448.90 2029.88,5453.34"/>
    </edge>
    <edge id=":1139_19" function="internal">
        <lane id=":1139_19_0" index="0" speed="3.65" length="2.34" shape="2018.05,5449.35 2018.34,5450.20 2018.08,5451.62"/>
    </edge>
    <edge id=":12_0" function="internal">
        <lane id=":12_0_0" index="0" speed="5.67" length="9.24" shape="2835.98,3827.30 2833.94,3825.42 2832.15,3824.98 2830.60,3825.98 2829.29,3828.42"/>
    </edge>
    <edge id=":12_1" function="internal">
        <lane id=":12_1_0" index="0" speed="13.89" length="15.50" shape="2835.98,3827.30 2833.40,3824.45 2830.49,3821.80 2827.31,3819.52 2823.92,3817.79"/>
    </edge>
    <edge id=":12_2" function="internal">
        <lane id=":12_2_0" index="0" speed="8.07" length="5.96" shape="2835.98,3827.30 2833.32,3823.15 2833.12,3822.14"/>
    </edge>
    <edge id=":12_3" function="internal">
        <lane id=":12_3_0" index="0" speed="3.65" length="2.24" shape="2835.98,3827.30 2835.83,3825.87 2836.15,3825.14"/>
    </edge>
    <edge id=":12_16" function="internal">
        <lane id=":12_16_0" index="0" speed="8.07" length="10.27" shape="2833.12,3822.14 2832.61,3819.49 2833.85,3816.32 2837.03,3813.64"/>
    </edge>
    <edge id=":12_17" function="internal">
        <lane id=":12_17_0" index="0" speed="3.65" length="2.44" shape="2836.15,3825.14 2836.19,3825.05 2837.06,3824.85 2838.44,3825.26"/>
    </edge>
    <edge id=":12_4" function="internal">
        <lane id=":12_4_0" index="0" speed="6.59" length="10.45" shape="2838.65,3816.40 2836.73,3818.07 2836.06,3820.10 2836.63,3822.50 2838.44,3825.26"/>
    </edge>
    <edge id=":12_5" function="internal">
        <lane id=":12_5_0" index="0" speed="13.89" length="15.49" shape="2838.65,3816.40 2835.61,3818.69 2833.01,3821.61 2830.89,3824.93 2829.29,3828.42"/>
    </edge>
    <edge id=":12_6" function="internal">
        <lane id=":12_6_0" index="0" speed="11.61" length="15.33" shape="2838.65,3816.40 2834.96,3818.11 2831.28,3818.91 2827.60,3818.81 2823.92,3817.79"/>
    </edge>
    <edge id=":12_7" function="internal">
        <lane id=":12_7_0" index="0" speed="3.65" length="4.67" shape="2838.65,3816.40 2837.21,3816.32 2836.46,3815.83 2836.40,3814.94 2837.03,3813.64"/>
    </edge>
    <edge id=":12_8" function="internal">
        <lane id=":12_8_0" index="0" speed="10.49" length="12.42" shape="2825.10,3814.82 2828.06,3815.63 2831.04,3815.70 2834.03,3815.04 2837.03,3813.64"/>
    </edge>
    <edge id=":12_9" function="internal">
        <lane id=":12_9_0" index="0" speed="13.89" length="17.08" shape="2825.10,3814.82 2828.70,3816.69 2832.32,3819.29 2835.67,3822.27 2838.44,3825.26"/>
    </edge>
    <edge id=":12_10" function="internal">
        <lane id=":12_10_0" index="0" speed="8.55" length="6.89" shape="2825.10,3814.82 2828.40,3816.88 2829.96,3819.44"/>
    </edge>
    <edge id=":12_11" function="internal">
        <lane id=":12_11_0" index="0" speed="3.65" length="2.49" shape="2825.10,3814.82 2825.92,3816.01 2825.99,3816.90 2825.88,3817.00"/>
    </edge>
    <edge id=":12_18" function="internal">
        <lane id=":12_18_0" index="0" speed="8.55" length="9.21" shape="2829.96,3819.44 2830.19,3819.83 2830.49,3823.68 2829.29,3828.42"/>
    </edge>
    <edge id=":12_19" function="internal">
        <lane id=":12_19_0" index="0" speed="3.65" length="2.19" shape="2825.88,3817.00 2825.33,3817.49 2823.92,3817.79"/>
    </edge>
    <edge id=":12_12" function="internal">
        <lane id=":12_12_0" index="0" speed="7.17" length="11.03" shape="2826.30,3827.30 2827.20,3823.91 2827.10,3821.20 2826.01,3819.16 2823.92,3817.79"/>
    </edge>
    <edge id=":12_13" function="internal">
        <lane id=":12_13_0" index="0" speed="13.89" length="17.61" shape="2826.30,3827.30 2828.11,3823.55 2830.71,3819.66 2833.78,3816.18 2837.03,3813.64"/>
    </edge>
    <edge id=":12_14" function="internal">
        <lane id=":12_14_0" index="0" speed="7.41" length="16.78" shape="2826.30,3827.30 2828.67,3822.86 2831.49,3821.04 2834.75,3821.84 2838.44,3825.26"/>
    </edge>
    <edge id=":12_15" function="internal">
        <lane id=":12_15_0" index="0" speed="3.65" length="4.67" shape="2826.30,3827.30 2827.47,3826.46 2828.36,3826.36 2828.97,3827.02 2829.29,3828.42"/>
    </edge>
    <edge id=":1371_0" function="internal">
        <lane id=":1371_0_0" index="0" speed="13.89" length="17.08" shape="2580.28,7314.83 2578.37,7318.44 2575.81,7322.11 2572.83,7325.43 2569.70,7328.01"/>
    </edge>
    <edge id=":1371_1" function="internal">
        <lane id=":1371_1_0" index="0" speed="7.46" length="7.82" shape="2580.28,7314.83 2577.82,7318.89 2575.17,7320.45"/>
    </edge>
    <edge id=":1371_2" function="internal">
        <lane id=":1371_2_0" index="0" speed="3.65" length="2.44" shape="2580.28,7314.83 2579.07,7315.61 2578.18,7315.66 2578.11,7315.58"/>
    </edge>
    <edge id=":1371_9" function="internal">
        <lane id=":1371_9_0" index="0" speed="7.46" length="8.32" shape="2575.17,7320.45 2574.96,7320.58 2571.70,7319.92 2568.04,7316.89"/>
    </edge>
    <edge id=":1371_10" function="internal">
        <lane id=":1371_10_0" index="0" speed="3.65" length="2.23" shape="2578.11,7315.58 2577.60,7314.98 2577.34,7313.56"/>
    </edge>
    <edge id=":1371_3" function="internal">
        <lane id=":1371_3_0" index="0" speed="5.79" length="9.15" shape="2570.40,7314.73 2572.48,7316.44 2574.32,7316.82 2575.95,7315.86 2577.34,7313.56"/>
    </edge>
    <edge id=":1371_4" function="internal">
        <lane id=":1371_4_0" index="0" speed="7.97" length="15.76" shape="2570.40,7314.73 2573.10,7318.55 2573.88,7322.04 2572.74,7325.19 2569.70,7328.01"/>
    </edge>
    <edge id=":1371_5" function="internal">
        <lane id=":1371_5_0" index="0" speed="3.65" length="4.67" shape="2570.40,7314.73 2570.63,7316.15 2570.31,7316.99 2569.45,7317.23 2568.04,7316.89"/>
    </edge>
    <edge id=":1371_6" function="internal">
        <lane id=":1371_6_0" index="0" speed="6.48" length="10.00" shape="2567.93,7325.35 2569.77,7323.60 2570.40,7321.61 2569.83,7319.37 2568.04,7316.89"/>
    </edge>
    <edge id=":1371_7" function="internal">
        <lane id=":1371_7_0" index="0" speed="13.89" length="15.28" shape="2567.93,7325.35 2570.88,7322.99 2573.45,7320.14 2575.62,7316.95 2577.34,7313.56"/>
    </edge>
    <edge id=":1371_8" function="internal">
        <lane id=":1371_8_0" index="0" speed="3.65" length="2.15" shape="2567.93,7325.35 2569.37,7325.35 2569.98,7325.70"/>
    </edge>
    <edge id=":1371_11" function="internal">
        <lane id=":1371_11_0" index="0" speed="3.65" length="2.52" shape="2569.98,7325.70 2570.15,7325.80 2570.25,7326.68 2569.70,7328.01"/>
    </edge>
    <edge id=":1391_0" function="internal">
        <lane id=":1391_0_0" index="0" speed="13.89" length="15.72" shape="2888.58,3628.05 2886.07,3625.12 2883.63,3621.96 2881.30,3618.71 2879.14,3615.50"/>
    </edge>
    <edge id=":1391_1" function="internal">
        <lane id=":1391_1_0" index="0" speed="9.44" length="5.83" shape="2888.58,3628.05 2886.69,3625.05 2886.30,3622.80"/>
    </edge>
    <edge id=":1391_2" function="internal">
        <lane id=":1391_2_0" index="0" speed="3.65" length="2.34" shape="2888.58,3628.05 2888.37,3626.62 2888.69,3625.79"/>
    </edge>
    <edge id=":1391_9" function="internal">
        <lane id=":1391_9_0" index="0" speed="9.44" length="9.74" shape="2886.30,3622.80 2886.09,3621.64 2886.78,3617.82 2888.76,3613.59"/>
    </edge>
    <edge id=":1391_10" function="internal">
        <lane id=":1391_10_0" index="0" speed="3.65" length="2.34" shape="2888.69,3625.79 2889.55,3625.55 2890.95,3625.90"/>
    </edge>
    <edge id=":1391_3" function="internal">
        <lane id=":1391_3_0" index="0" speed="8.18" length="11.48" shape="2891.51,3615.21 2889.96,3618.45 2889.35,3621.31 2889.68,3623.79 2890.95,3625.90"/>
    </edge>
    <edge id=":1391_4" function="internal">
        <lane id=":1391_4_0" index="0" speed="7.44" length="16.36" shape="2891.51,3615.21 2888.51,3619.01 2885.44,3620.33 2882.32,3619.16 2879.14,3615.50"/>
    </edge>
    <edge id=":1391_5" function="internal">
        <lane id=":1391_5_0" index="0" speed="3.65" length="4.67" shape="2891.51,3615.21 2890.22,3615.84 2889.32,3615.78 2888.84,3615.03 2888.76,3613.59"/>
    </edge>
    <edge id=":1391_6" function="internal">
        <lane id=":1391_6_0" index="0" speed="5.74" length="9.18" shape="2881.82,3613.75 2883.60,3615.80 2885.35,3616.45 2887.07,3615.72 2888.76,3613.59"/>
    </edge>
    <edge id=":1391_7" function="internal">
        <lane id=":1391_7_0" index="0" speed="13.89" length="15.21" shape="2881.82,3613.75 2883.93,3616.89 2886.15,3620.00 2888.49,3623.03 2890.95,3625.90"/>
    </edge>
    <edge id=":1391_8" function="internal">
        <lane id=":1391_8_0" index="0" speed="3.65" length="2.34" shape="2881.82,3613.75 2881.80,3615.19 2881.36,3615.96"/>
    </edge>
    <edge id=":1391_11" function="internal">
        <lane id=":1391_11_0" index="0" speed="3.65" length="2.34" shape="2881.36,3615.96 2880.47,3616.07 2879.14,3615.50"/>
    </edge>
    <edge id=":14_0" function="internal">
        <lane id=":14_0_0" index="0" speed="13.11" length="12.01" shape="2361.01,3345.91 2359.65,3342.86 2358.32,3340.45 2356.55,3338.44 2353.86,3336.62"/>
    </edge>
    <edge id=":14_1" function="internal">
        <lane id=":14_1_0" index="0" speed="7.57" length="15.47" shape="2361.01,3345.91 2359.80,3341.63 2360.42,3338.40 2362.88,3336.21 2367.17,3335.06"/>
    </edge>
    <edge id=":14_2" function="internal">
        <lane id=":14_2_0" index="0" speed="3.65" length="4.67" shape="2361.01,3345.91 2361.25,3344.49 2361.82,3343.80 2362.72,3343.84 2363.93,3344.61"/>
    </edge>
    <edge id=":14_3" function="internal">
        <lane id=":14_3_0" index="0" speed="5.96" length="9.09" shape="2367.56,3338.24 2365.04,3338.91 2363.59,3340.20 2363.22,3342.10 2363.93,3344.61"/>
    </edge>
    <edge id=":14_4" function="internal">
        <lane id=":14_4_0" index="0" speed="13.89" length="14.02" shape="2367.56,3338.24 2363.94,3338.58 2360.49,3338.55 2357.16,3337.97 2353.86,3336.62"/>
    </edge>
    <edge id=":14_5" function="internal">
        <lane id=":14_5_0" index="0" speed="3.65" length="2.34" shape="2367.56,3338.24 2366.27,3337.59 2365.78,3336.84"/>
    </edge>
    <edge id=":14_9" function="internal">
        <lane id=":14_9_0" index="0" speed="3.65" length="2.34" shape="2365.78,3336.84 2366.08,3336.00 2367.17,3335.06"/>
    </edge>
    <edge id=":14_6" function="internal">
        <lane id=":14_6_0" index="0" speed="13.85" length="12.11" shape="2355.39,3333.81 2358.39,3335.10 2361.07,3335.56 2363.86,3335.46 2367.17,3335.06"/>
    </edge>
    <edge id=":14_7" function="internal">
        <lane id=":14_7_0" index="0" speed="13.89" length="4.63" shape="2355.39,3333.81 2358.29,3335.86 2359.01,3336.67"/>
    </edge>
    <edge id=":14_8" function="internal">
        <lane id=":14_8_0" index="0" speed="3.65" length="2.14" shape="2355.39,3333.81 2356.06,3335.09 2356.04,3335.78"/>
    </edge>
    <edge id=":14_10" function="internal">
        <lane id=":14_10_0" index="0" speed="13.89" length="9.40" shape="2359.01,3336.67 2360.55,3338.39 2362.36,3341.33 2363.93,3344.61"/>
    </edge>
    <edge id=":14_11" function="internal">
        <lane id=":14_11_0" index="0" speed="3.65" length="2.54" shape="2356.04,3335.78 2356.03,3335.98 2355.30,3336.49 2353.86,3336.62"/>
    </edge>
    <edge id=":141_0" function="internal">
        <lane id=":141_0_0" index="0" speed="3.65" length="4.67" shape="2576.81,4802.23 2577.61,4801.03 2578.41,4800.63 2579.21,4801.02 2580.01,4802.22"/>
    </edge>
    <edge id=":145_0" function="internal">
        <lane id=":145_0_0" index="0" speed="5.66" length="9.25" shape="2117.93,4505.81 2115.39,4504.67 2113.55,4504.82 2112.42,4506.27 2112.00,4509.03"/>
    </edge>
    <edge id=":145_1" function="internal">
        <lane id=":145_1_0" index="0" speed="13.89" length="15.01" shape="2117.93,4505.81 2114.74,4503.77 2111.71,4501.51 2109.01,4498.92 2106.87,4495.89"/>
    </edge>
    <edge id=":145_2" function="internal">
        <lane id=":145_2_0" index="0" speed="3.65" length="2.34" shape="2117.93,4505.81 2117.33,4504.50 2117.41,4503.61"/>
    </edge>
    <edge id=":145_9" function="internal">
        <lane id=":145_9_0" index="0" speed="3.65" length="2.34" shape="2117.41,4503.61 2118.17,4503.14 2119.61,4503.09"/>
    </edge>
    <edge id=":145_3" function="internal">
        <lane id=":145_3_0" index="0" speed="13.89" length="13.40" shape="2109.68,4494.35 2111.65,4497.20 2113.95,4499.38 2116.61,4501.23 2119.61,4503.09"/>
    </edge>
    <edge id=":145_4" function="internal">
        <lane id=":145_4_0" index="0" speed="13.89" length="4.81" shape="2109.68,4494.35 2111.07,4497.80 2111.28,4498.88"/>
    </edge>
    <edge id=":145_5" function="internal">
        <lane id=":145_5_0" index="0" speed="3.65" length="2.13" shape="2109.68,4494.35 2109.56,4495.79 2109.16,4496.36"/>
    </edge>
    <edge id=":145_10" function="internal">
        <lane id=":145_10_0" index="0" speed="13.89" length="10.20" shape="2111.28,4498.88 2111.78,4501.46 2112.02,4505.24 2112.00,4509.03"/>
    </edge>
    <edge id=":145_11" function="internal">
        <lane id=":145_11_0" index="0" speed="3.65" length="2.54" shape="2109.16,4496.36 2109.05,4496.53 2108.15,4496.56 2106.87,4495.89"/>
    </edge>
    <edge id=":145_6" function="internal">
        <lane id=":145_6_0" index="0" speed="13.89" length="13.39" shape="2108.80,4508.96 2108.88,4505.42 2108.77,4502.19 2108.20,4499.08 2106.87,4495.89"/>
    </edge>
    <edge id=":145_7" function="internal">
        <lane id=":145_7_0" index="0" speed="7.40" length="16.88" shape="2108.80,4508.96 2109.57,4503.93 2111.64,4501.28 2114.98,4501.00 2119.61,4503.09"/>
    </edge>
    <edge id=":145_8" function="internal">
        <lane id=":145_8_0" index="0" speed="3.65" length="4.67" shape="2108.80,4508.96 2109.62,4507.77 2110.43,4507.39 2111.22,4507.81 2112.00,4509.03"/>
    </edge>
    <edge id=":1450_0" function="internal">
        <lane id=":1450_0_0" index="0" speed="6.09" length="7.31" shape="1887.27,5587.28 1886.18,5585.62 1885.85,5583.99 1886.27,5582.37 1887.45,5580.77"/>
    </edge>
    <edge id=":1450_1" function="internal">
        <lane id=":1450_1_0" index="0" speed="3.91" length="2.44" shape="1889.74,5583.01 1889.35,5583.54 1889.21,5584.08 1889.32,5584.63 1889.68,5585.18"/>
    </edge>
    <edge id=":147_0" function="internal">
        <lane id=":147_0_0" index="0" speed="5.92" length="9.10" shape="2336.86,4091.97 2334.50,4090.83 2332.57,4090.86 2331.09,4092.09 2330.04,4094.49"/>
    </edge>
    <edge id=":147_1" function="internal">
        <lane id=":147_1_0" index="0" speed="13.89" length="15.93" shape="2336.86,4091.97 2333.52,4089.97 2329.85,4088.21 2326.03,4086.78 2322.28,4085.76"/>
    </edge>
    <edge id=":147_2" function="internal">
        <lane id=":147_2_0" index="0" speed="12.30" length="16.86" shape="2336.86,4091.97 2333.99,4089.30 2331.36,4085.60 2329.38,4081.54 2328.44,4077.77"/>
    </edge>
    <edge id=":147_3" function="internal">
        <lane id=":147_3_0" index="0" speed="3.65" length="4.67" shape="2336.86,4091.97 2336.31,4090.64 2336.42,4089.75 2337.20,4089.31 2338.65,4089.32"/>
    </edge>
    <edge id=":147_4" function="internal">
        <lane id=":147_4_0" index="0" speed="11.33" length="14.22" shape="2331.63,4077.50 2332.31,4081.06 2333.71,4084.22 2335.82,4086.97 2338.65,4089.32"/>
    </edge>
    <edge id=":147_5" function="internal">
        <lane id=":147_5_0" index="0" speed="13.89" length="17.13" shape="2331.63,4077.50 2331.75,4081.58 2331.49,4086.06 2330.91,4090.51 2330.04,4094.49"/>
    </edge>
    <edge id=":147_6" function="internal">
        <lane id=":147_6_0" index="0" speed="7.58" length="7.12" shape="2331.63,4077.50 2331.38,4081.93 2330.04,4084.26"/>
    </edge>
    <edge id=":147_7" function="internal">
        <lane id=":147_7_0" index="0" speed="3.65" length="2.34" shape="2331.63,4077.50 2330.93,4078.76 2330.17,4079.23"/>
    </edge>
    <edge id=":147_16" function="internal">
        <lane id=":147_16_0" index="0" speed="7.58" length="8.33" shape="2330.04,4084.26 2329.74,4084.78 2326.70,4086.06 2322.28,4085.76"/>
    </edge>